
    CNRS - NERC - Met OFFICE - MERCATOR-ocean - CMCC
                        NEMO team
             Ocean General Circulation Model
                 NEMO version 4.0  (2019) 

            ._      ._      ._      ._      ._    
        _.-._)`\_.-._)`\_.-._)`\_.-._)`\_.-._)`\_ 

            o         _,           _,             
             o      .' (        .-' /             
            o     _/..._'.    .'   /              
       (    o .-'`      ` '-./  _.'               
        )    ( o)           ;= <_         (       
       (      '-.,\\__ __.-;`\   '.        )      
        )  )       \) |`\ \)  '.   \      (   (   
       (  (           \_/       '-._\      )   )  
        )  ) jgs                     `    (   (   
      ^^^^^^^^^^^^^^^^^^^^^^^^^^^^^^^^^^^^^^^^^^^ 


AAAAAAAA

    
 usr_def_nam  : read the user defined namelist (namusr_def) in namelist_cfg
 ~~~~~~~~~~~ 
    Namelist namusr_def : C1 case
       type of vertical coordinate : 
          z-coordinate flag                     ln_zco =  F
          z-partial-step coordinate flag        ln_zps =  F
          s-coordinate flag                     ln_sco =  F
       C1D domain = 3 x 3 x75 grid-points                
          resulting global domain size :        jpiglo =            3
                                                jpjglo =            3
                                                jpkglo =           75
    Lateral boundary condition of the global domain
       C1D : closed basin                       jperio =            7
    Namelist nammpp
       jpni and jpnj will be calculated automatically
       avoid use of mpi_allgather at the north fold  ln_nnogather =  T
 mpp_init:
 ~~~~~~~~ 

    ==> you use the best mpi decomposition

   Number of mpi processes:     1
   Number of ocean subdomains =     1
   Number of suppressed land subdomains =     0


 MPI Message Passing MPI - domain lay out over processors

    defines mpp subdomains
       jpni =            1
       jpnj =            1

       sum ilci(i,1) =            3  jpiglo =            3
       sum ilcj(1,j) =            3  jpjglo =            3

           ****************
           *              *   
         1 *    3  x  3   *   
           *          0   *        
           *              *   
           ****************
                   1             

    resulting internal parameters : 
       nproc  =            0
       nowe   =            0    noea  =             0
       nono   =            0    noso  =             0
       nbondi =            2
       nbondj =            2
       npolj  =            0
     l_Iperio =  T
     l_Jperio =  T
       nlci   =            3
       nlcj   =            3
       nimpp  =            1
       njmpp  =            1
       nreci  =            2
       nrecj  =            2
       nn_hls =            1

 mpp_init_ioipsl :   iloc  =            3           3
 ~~~~~~~~~~~~~~~     iabsf =            1           1
                     ihals =            0           0
                     ihale =            0           0

 nemo_ctl: Control prints
 ~~~~~~~~
    Namelist namctl
       run control (for debugging)     ln_ctl     =  F
        finer control over o/p sn_cfctl%l_config  =  T
                               sn_cfctl%l_runstat =  F
                               sn_cfctl%l_trcstat =  F
                               sn_cfctl%l_oceout  =  F
                               sn_cfctl%l_layout  =  F
                               sn_cfctl%l_mppout  =  F
                               sn_cfctl%l_mpptop  =  F
                               sn_cfctl%procmin   =            0
                               sn_cfctl%procmax   =      1000000
                               sn_cfctl%procincr  =            1
                               sn_cfctl%ptimincr  =            1
       level of print                  nn_print   =            0
       Start i indice for SUM control  nn_ictls   =            0
       End i indice for SUM control    nn_ictle   =            0
       Start j indice for SUM control  nn_jctls   =            0
       End j indice for SUM control    nn_jctle   =            0
       number of proc. following i     nn_isplt   =            1
       number of proc. following j     nn_jsplt   =            1
       timing by routine               ln_timing  =  F
       CFL diagnostics                 ln_diacfl  =  F

    Namelist namcfg
       read domain configuration file                ln_read_cfg      =  F
          filename to be read                           cn_domcfg     = domain_cfg
          keep closed seas in the domain (if exist)     ln_closea     =  F
       create a configuration definition file        ln_write_cfg     =  F
          filename to be written                        cn_domcfg_out = domain_cfg_out
       use file attribute if exists as i/p j-start   ln_use_jattr     =  F

 phy_cst : initialization of ocean parameters and constants
 ~~~~~~~
       mathematical constant                 rpi =    3.1415926535897931     
       day                                rday   =    86400.000000000000       s
       sideral year                       rsiyea =    31558149.010110732       s
       sideral day                        rsiday =    86164.099655911836       s
       omega                              omega  =    7.2921150830460618E-005  s^-1

       nb of months per year               raamo =    12.000000000000000       months
       nb of hours per day                 rjjhh =    24.000000000000000       hours
       nb of minutes per hour              rhhmm =    60.000000000000000       mn
       nb of seconds per minute            rmmss =    60.000000000000000       s

       earth radius                         ra   =    6371229.0000000000       m
       gravity                              grav =    9.8066499999999994       m/s^2

       freezing point of water              rt0  =    273.14999999999998       K

    reference density and heat capacity now defined in eosbn2.f90

       thermal conductivity of pure ice          =    2.0343960000000001       J/s/m/K
       thermal conductivity of snow is defined in a namelist 
       fresh ice specific heat                   =    2067.0000000000000       J/kg/K
       latent heat of fusion of fresh ice / snow =    334000.00000000000       J/kg
       latent heat of subl.  of fresh ice / snow =    2834000.0000000000       J/kg
       density of sea ice                        =    917.00000000000000       kg/m^3
       density of snow                           =    330.00000000000000       kg/m^3
       density of freshwater (in melt ponds)     =    1000.0000000000000       kg/m^3
       salinity of ice (for pisces)              =    6.0000000000000000       psu
       salinity of sea (for pisces and isf)      =    34.700000000000003       psu
       latent heat of evaporation (water)        =    2500000.0000000000       J/m^3
       von Karman constant                       =   0.40000000000000002     
       Stefan-Boltzmann constant                 =    5.6699999999999998E-008  J/s/m^2/K^4

       conversion: degre ==> radian          rad =    1.7453292519943295E-002

       smallest real computer value       rsmall =    1.1102230246251565E-016

 eos_init : equation of state
 ~~~~~~~~
    Namelist nameos : Chosen the Equation Of Seawater (EOS)
       TEOS-10 : rho=F(Conservative Temperature, Absolute  Salinity, depth)   ln_TEOS10 =  F
       EOS-80  : rho=F(Potential    Temperature, Practical Salinity, depth)   ln_EOS80  =  T
       S-EOS   : rho=F(Conservative Temperature, Absolute  Salinity, depth)   ln_SEOS   =  F

    ==>>>   use of EOS-80 equation of state (pot. temp. and pract. salinity)

    ==>>>   model does not use Conservative Temperature

    Associated physical constant
       volumic mass of reference           rau0  =    1026.0000000000000       kg/m^3
       1. / rau0                        r1_rau0  =    9.7465886939571145E-004  m^3/kg
       ocean specific heat                 rcp   =    3991.8679571196299       J/Kelvin
       rau0 * rcp                       rau0_rcp =    4095656.5240047402     
       1. / ( rau0 * rcp )           r1_rau0_rcp =    2.4416109948160356E-007

 c1d_init : Initialize 1D model configuration options
 ~~~~~~~~
    Namelist namc1d : set options for the C1D model
       column latitude                 rn_lat1d     =    50.000000000000000     
       column longitude                rn_lon1d     =   -145.00000000000000     
       column localization in a grid   ln_c1d_locpt =  T

 wad_init : Wetting and drying initialization through namelist read
 ~~~~~~~~
    Namelist namwad
       Logical for Iter Lim wd option   ln_wd_il     =  F
       Logical for Dir. Lim wd option   ln_wd_dl     =  F
       Depth at which wet/drying starts rn_wdmin0    =   0.29999999999999999     
       Minimum wet depth on dried cells rn_wdmin1    =   0.20000000000000001     
       Tolerance of min wet depth       rn_wdmin2    =    1.0000000000000000E-004
       land elevation threshold         rn_wdld      =    2.5000000000000000     
       Max iteration for W/D limiter    nn_wdit      =           20
       T => baroclinic u,v=0 at dry pts: ln_wd_dl_bc =  F
       use a ramp for rwd limiter:  ln_wd_dl_rwd_rmp =  F
       cut off depth sbc for wd   rn_wd_sbcdep       =    5.0000000000000000     
       fraction to start sbc wgt rn_wd_sbcfra        =   0.99900000000000000     
       No configuration file so seting ssh_ref to zero  

 dom_init : domain initialization
 ~~~~~~~~
    Domain info
       dimension of model:
              Local domain      Global domain       Data domain 
               jpi     :       3   jpiglo  :       3
               jpj     :       3   jpjglo  :       3
               jpk     :      75   jpkglo  :      75
               jpij    :       9
       mpp local domain info (mpp):
               jpni    :            1    nn_hls  :            1
               jpnj    :            1    nn_hls  :            1
               jpnij   :            1
       lateral boundary of the Global domain : jperio  =            7
          (i.e. cyclic east-west and north-south)
       Ocean model configuration used:
          cn_cfg = C1D   nn_cfg =            0

 dom_glo : domain: global <<==>> local 
 ~~~~~~~ 
    global domain:   jpiglo =            3  jpjglo =            3  jpkglo =           75
    local  domain:   jpi    =            3  jpj    =            3  jpk    =           75

    conversion from local to global domain indices (and vise versa) done

 dom_nam : domain initialization through namelist read
 ~~~~~~~ 
    Namelist : namrun   ---   run parameters
       Assimilation cycle              nn_no           =            0
       experiment name for output      cn_exp          = /media/belharet/DD_BELHARET/NECCTON/comparison/C1D_PAPA
       file prefix restart input       cn_ocerst_in    = restart
       restart input directory         cn_ocerst_indir = .
       file prefix restart output      cn_ocerst_out   = restart
       restart output directory        cn_ocerst_outdir= .
       restart logical                 ln_rstart       =  F
       start with forward time step    nn_euler        =            1
       control of time step            nn_rstctl       =            0
       number of the first time step   nn_it000        =            1
       number of the last time step    nn_itend        =        17520
       initial calendar date aammjj    nn_date0        =     20100615
       initial time of day in hhmm     nn_time0        =            0
       leap year calendar (0/1)        nn_leapy        =            0
       initial state output            nn_istate       =            0
       frequency of restart file       nn_stock        =        87600
       mask land points                ln_mskland      =  F
       additional CF standard metadata ln_cfmeta       =  F
       overwrite an existing file      ln_clobber      =  T
       NetCDF chunksize (bytes)        nn_chunksz      =            0
       IS coupling at the restart step ln_iscpl        =  F
       READ restart for a single file using XIOS ln_xios_read = F
       Write restart using XIOS        nn_wxios   =            0

    ==>>>   Start from rest (ln_rstart=F)
            an Euler initial time step is used : nn_euler is forced to 0 

  ===>>> : W A R N I N G

          ===============

  nn_stock =        87600  it is forced to        17520


    ==>>>   The IOIPSL calendar is "noleap", i.e. no leap year

    Namelist : namdom   ---   space & time domain
       linear free surface (=T)                ln_linssh   =  F
       create mesh/mask file                   ln_meshmask =  F
       treshold to open the isf cavity         rn_isfhmin  =    1.0000000000000000       [m]
       ocean time step                         rn_rdt      =    3600.0000000000000     
       asselin time filter parameter           rn_atfp     =   0.10000000000000001     
       online coarsening of dynamical fields   ln_crs      =  F

 dom_hgr : define the horizontal mesh from ithe following par_oce parameters 
 ~~~~~~~   
    namcfg : read (=T) or user defined (=F) configuration    ln_read_cfg  =  F

           User defined horizontal mesh (usr_def_hgr)

 usr_def_hgr : C1D configuration
 ~~~~~~~~~~~   uniform grid spacing WITH Coriolis force
           Coriolis parameter calculated on the sphere from gphif & gphit
           u- & v-surfaces calculated as e1 e2 product

 dom_zgr : vertical coordinate
 ~~~~~~~

           User defined vertical mesh (usr_def_zgr)

 usr_def_zgr : C1D configuration (zps-coordinate closed box ocean without cavities)
 ~~~~~~~~~~~

      zgr_z75L   : Reference vertical z-coordinates 
      ~~~~~~~
        C1D case : L75 function with the following coefficients :
                  zsur =   -3958.9513712768298     
                  za0  =    103.95300960000000     
                  za1  =    2.4159512689999998     
                  zkth =    15.351013699999999     
                  zacr =    7.0000000000000000     
                  za2  =    100.76092850000001     
                  zkth2=    48.029893719999997     
                  zacr2=    13.000000000000000     

               Reference 1D z-coordinate depth and scale factors:
          level  gdept_1d  gdepw_1d  e3t_1d   e3w_1d  
             1     0.51     0.00     1.02     1.01
             2     1.56     1.02     1.08     1.05
             3     2.67     2.10     1.15     1.11
             4     3.86     3.25     1.23     1.19
             5     5.14     4.49     1.34     1.28
             6     6.54     5.83     1.47     1.40
             7     8.09     7.30     1.64     1.55
             8     9.82     8.93     1.84     1.73
             9    11.77    10.77     2.08     1.95
            10    13.99    12.85     2.37     2.22
            11    16.53    15.22     2.71     2.53
            12    19.43    17.93     3.11     2.90
            13    22.76    21.04     3.56     3.33
            14    26.56    24.60     4.05     3.80
            15    30.87    28.65     4.59     4.32
            16    35.74    33.24     5.15     4.87
            17    41.18    38.39     5.73     5.44
            18    47.21    44.12     6.33     6.03
            19    53.85    50.45     6.95     6.64
            20    61.11    57.40     7.58     7.26
            21    69.02    64.98     8.24     7.91
            22    77.61    73.23     8.95     8.59
            23    86.93    82.18     9.71     9.32
            24    97.04    91.88    10.54    10.11
            25   108.03   102.42    11.47    10.99
            26   120.00   113.89    12.51    11.97
            27   133.08   126.39    13.68    13.08
            28   147.41   140.07    15.02    14.33
            29   163.16   155.10    16.55    15.76
            30   180.55   171.64    18.28    17.39
            31   199.79   189.92    20.26    19.24
            32   221.14   210.18    22.51    21.35
            33   244.89   232.70    25.07    23.75
            34   271.36   257.76    27.95    26.47
            35   300.89   285.72    31.20    29.53
            36   333.86   316.92    34.85    32.98
            37   370.69   351.77    38.91    36.83
            38   411.79   390.68    43.41    41.11
            39   457.63   434.09    48.37    45.83
            40   508.64   482.46    53.78    51.01
            41   565.29   536.23    59.64    56.65
            42   628.03   595.87    65.93    62.73
            43   697.26   661.81    72.63    69.23
            44   773.37   734.43    79.67    76.11
            45   856.68   814.11    87.01    83.31
            46   947.45   901.12    94.57    90.77
            47  1045.85   995.69   102.27    98.41
            48  1151.99  1097.95   110.01   106.14
            49  1265.86  1207.96   117.71   113.87
            50  1387.38  1325.67   125.28   121.52
            51  1516.36  1450.95   132.63   128.99
            52  1652.57  1583.58   139.70   136.20
            53  1795.67  1723.28   146.41   143.10
            54  1945.30  1869.69   152.73   149.62
            55  2101.03  2022.42   158.62   155.73
            56  2262.42  2181.04   164.06   161.40
            57  2429.03  2345.10   169.04   166.60
            58  2600.38  2514.14   173.56   171.36
            59  2776.04  2687.70   177.65   175.66
            60  2955.57  2865.35   181.31   179.53
            61  3138.56  3046.66   184.58   182.99
            62  3324.64  3231.24   187.48   186.08
            63  3513.45  3418.72   190.05   188.80
            64  3704.66  3608.77   192.30   191.21
            65  3897.98  3801.07   194.28   193.33
            66  4093.16  3995.35   196.01   195.18
            67  4289.95  4191.37   197.52   196.79
            68  4488.15  4388.89   198.84   198.20
            69  4687.58  4587.73   199.98   199.43
            70  4888.07  4787.70   200.97   200.49
            71  5089.48  4988.67   201.82   201.41
            72  5291.68  5190.49   202.56   202.20
            73  5494.58  5393.05   203.20   202.89
            74  5698.06  5596.25   203.75   203.49
            75  5902.06  5800.00   204.12   204.00

 clo_bat : suppression of closed seas
 ~~~~~~~
 No domain_cfg file => no suppression of closed seas.

    Type of vertical coordinate (read in domain_cfg file or set in userdef_nam) :
       z-coordinate - full steps      ln_zco    =  F
       z-coordinate - partial steps   ln_zps    =  T
       s- or hybrid z-s-coordinate    ln_sco    =  F
       ice shelf cavities             ln_isfcav =  F

     zgr_top_bot : ocean top and bottom k-index of T-, U-, V- and W-levels 
     ~~~~~~~~~~~

 dommsk : ocean mask 
 ~~~~~~
    Namelist namlbc
       lateral momentum boundary cond.    rn_shlat  =    0.0000000000000000     
       consistency with analytical form   ln_vorlat =  F

    ==>>>   ocean lateral  free-slip

 usr_def_fmask : NO alteration of fmask in specific straits 
 ~~~~~~~~~~~~~

 dom_vvl_init : Variable volume activated
 ~~~~~~~~~~~~

 dom_vvl_ctl : choice/control of the variable vertical coordinate
 ~~~~~~~~~~~
    Namelist nam_vvl : chose a vertical coordinate
       zstar                      ln_vvl_zstar   =  T
       ztilde                     ln_vvl_ztilde  =  F
       layer                      ln_vvl_layer   =  F
       ztilde as zstar   ln_vvl_ztilde_as_zstar  =  F
       ztilde near the equator    ln_vvl_zstar_at_eqtor  =  F
       !
       thickness diffusion coefficient                      rn_ahe3      =    0.0000000000000000     
       maximum e3t deformation fractional change            rn_zdef_max  =   0.90000000000000002     
       z-tilde to zstar restoration timescale (days)        rn_rst_e3t   =    30.000000000000000     
       z-tilde cutoff frequency of low-pass filter (days)   rn_lf_cutoff =    5.0000000000000000     
          debug prints flag                                 ln_vvl_dbg   =  T

       ==>>>   zstar vertical coordinate is used

 cor_c1d : Coriolis factor at T-point
 ~~~~~~~

 dom_ctl : extrema of the masked scale factors
 ~~~~~~~
              e1t maxi:     100.00 at i =     2 j=     2
              e1t mini:     100.00 at i =     2 j=     2
              e2t maxi:     100.00 at i =     2 j=     2
              e2t mini:     100.00 at i =     2 j=     2

 dom_init :   ==>>>   END of domain initialization
 ~~~~~~~~


 istate_init : Initialization of the dynamics and tracers
 ~~~~~~~~~~~

 dta_tsd_init : Temperature & Salinity data 
 ~~~~~~~~~~~~ 
    Namelist namtsd
       Initialisation of ocean T & S with T &S input data   ln_tsd_init =  T
       damping of ocean T & S toward T &S input data        ln_tsd_dmp  =  F


    fld_fill : fill data structure with information from namelist namtsd
    ~~~~~~~~
       list of files and frequency (>0: in hours ; <0 in months)
       root filename: ./init_PAPASTATION   variable name: votemper
          frequency:    24.000000000000000         time interp:  F    climatology:  T
          weights:    pairing:    data type: daily      land/sea mask:
       root filename: ./init_PAPASTATION   variable name: vosaline
          frequency:    24.000000000000000         time interp:  F    climatology:  T
          weights:    pairing:    data type: daily      land/sea mask:
  *** Info used values : 
    date ndastp                                      :     20100614
    number of elapsed days since the begining of run :    0.0000000000000000     
    nn_time0                                         :            0

 =======>> 1/2 time step before the start of the run DATE Y/M/D =   2010/ 6/14  nsec_day:   84600  nsec_week:  171000                     nsec_month: 1207800  nsec_year:14254200
======>> time-step =       1      New day, DATE Y/M/D = 2010/06/15      nday_year = 166
         nsec_year = 14257800   nsec_month = 1211400   nsec_day =  1800
   nsec_week =   174600
                     iom_nf90_open ~~~ open existing file: ./init_PAPASTATION_m06d15.nc in READ mode
                    ---> ./init_PAPASTATION_m06d15.nc OK
           read votemper (rec:      1) in ./init_PAPASTATION_m06d15.nc ok
                     iom_nf90_open ~~~ open existing file: ./init_PAPASTATION_m06d15.nc in READ mode
                    ---> ./init_PAPASTATION_m06d15.nc OK
           read vosaline (rec:      1) in ./init_PAPASTATION_m06d15.nc ok
   fld_read: var votemper kt =        1 ( 165.0208 days), Y/M/D = 2010/06/15, record:   0001 (days  165.0000 <->  166.0000)
   fld_read: var vosaline kt =        1 ( 165.0208 days), Y/M/D = 2010/06/15, record:   0001 (days  165.0000 <->  166.0000)
 dta_tsd: deallocte T & S arrays as they are only use to initialize the run

 tide_init : tidal components not used (ln_tide = F)
 ~~~~~~~~~ 

 sbc_init : surface boundary condition setting
 ~~~~~~~~ 
    Namelist namsbc (partly overwritten with CPP key setting)
       frequency update of sbc (and ice)             nn_fsbc       =            1
       Type of air-sea fluxes : 
          user defined formulation                   ln_usr        =  F
          flux         formulation                   ln_flx        =  F
          bulk         formulation                   ln_blk        =  T
       Type of coupling (Ocean/Ice/Atmosphere) : 
          ocean-atmosphere coupled formulation       ln_cpl        =  F
          mixed forced-coupled     formulation       ln_mixcpl     =  F
          OASIS coupling (with atm or sas)           lk_oasis      =  F
          components of your executable              nn_components =            0
       Sea-ice : 
          ice management in the sbc (=0/1/2/3)       nn_ice        =            0
          ice embedded into ocean                    ln_ice_embd   =  F
       Misc. options of sbc : 
          Light penetration in temperature Eq.       ln_traqsr     =  T
             daily mean to diurnal cycle qsr            ln_dm2dc   =  F
          Sea Surface Restoring on SST and/or SSS    ln_ssr        =  F
          FreshWater Budget control  (=0/1/2)        nn_fwb        =            0
          Patm gradient added in ocean & ice Eqs.    ln_apr_dyn    =  F
          runoff / runoff mouths                     ln_rnf        =  F
          iceshelf formulation                       ln_isf        =  F
          nb of iterations if land-sea-mask applied  nn_lsm        =            0
          surface wave                               ln_wave       =  F
                Stokes drift corr. to vert. velocity ln_sdw        =  F
                   vertical parametrization          nn_sdrift     =            0
                wave modified ocean stress           ln_tauwoc     =  F
                wave modified ocean stress component ln_tauw       =  F
                Stokes coriolis term                 ln_stcor      =  F
                neutral drag coefficient (CORE,NCAR) ln_cdgw       =  F

    ==>>>   NEMO configured as a single executable (i.e. including both OPA and Surface module)

    ==>>>   bulk formulation

 sbc_ssm_init : sea surface mean fields, nn_fsbc=1 : instantaneous values
 ~~~~~~~~~~~ 
    default initialisation of ss._m arrays

 sbc_blk_init : surface boundary condition -- bulk formulae
 ~~~~~~~~~~~~
    fld_fill : fill data structure with information from namelist namsbc_blk
    ~~~~~~~~
       list of files and frequency (>0: in hours ; <0 in months)
       root filename: ./forcing_C1D_PAPA   variable name: sowinu10
          frequency:    3.0000000000000000         time interp:  T    climatology:  T
          weights:    pairing:    data type: yearly     land/sea mask:
       root filename: ./forcing_C1D_PAPA   variable name: sowinv10
          frequency:    3.0000000000000000         time interp:  T    climatology:  T
          weights:    pairing:    data type: yearly     land/sea mask:
       root filename: ./forcing_C1D_PAPA   variable name: sotemair
          frequency:    3.0000000000000000         time interp:  T    climatology:  T
          weights:    pairing:    data type: yearly     land/sea mask:
       root filename: ./forcing_C1D_PAPA   variable name: sohumspe
          frequency:    3.0000000000000000         time interp:  T    climatology:  T
          weights:    pairing:    data type: yearly     land/sea mask:
       root filename: ./forcing_C1D_PAPA   variable name: sosudosw
          frequency:    3.0000000000000000         time interp:  F    climatology:  T
          weights:    pairing:    data type: yearly     land/sea mask:
       root filename: ./forcing_C1D_PAPA   variable name: sosudolw
          frequency:    3.0000000000000000         time interp:  F    climatology:  T
          weights:    pairing:    data type: yearly     land/sea mask:
       root filename: ./forcing_C1D_PAPA   variable name: sowaprec
          frequency:    3.0000000000000000         time interp:  F    climatology:  T
          weights:    pairing:    data type: yearly     land/sea mask:
       root filename: ./forcing_C1D_PAPA   variable name: sososnow
          frequency:    3.0000000000000000         time interp:  F    climatology:  T
          weights:    pairing:    data type: yearly     land/sea mask:
       root filename: ./forcing_C1D_PAPA   variable name: somslpre
          frequency:    3.0000000000000000         time interp:  T    climatology:  T
          weights:    pairing:    data type: yearly     land/sea mask:
       root filename: NOT USED   variable name: CC
          frequency:    24.000000000000000         time interp:  F    climatology:  T
          weights: ./weights_core_orca2_bilinear_noc.nc   pairing:    data type: yearly     land/sea mask:

    Namelist namsbc_blk (other than data information):
       "NCAR"      algorithm   (Large and Yeager 2008)     ln_NCAR      =  T
       "COARE 3.0" algorithm   (Fairall et al. 2003)       ln_COARE_3p0 =  F
       "COARE 3.5" algorithm   (Edson et al. 2013)         ln_COARE_3p5 =  F
       "ECMWF"     algorithm   (IFS cycle 31)              ln_ECMWF     =  F
       add High freq.contribution to the stress module     ln_taudif    =  F
       Air temperature and humidity reference height (m)   rn_zqt       =    2.0000000000000000     
       Wind vector reference height (m)                    rn_zu        =    10.000000000000000     
       factor applied on precipitation (total & snow)      rn_pfac      =    1.0000000000000000     
       factor applied on evaporation                       rn_efac      =    1.0000000000000000     
       factor applied on ocean/ice velocity                rn_vfac      =    0.0000000000000000     
          (form absolute (=0) to relative winds(=1))
       use ice-atm drag from Lupkes2012                    ln_Cd_L12    =  F
       use ice-atm drag from Lupkes2015                    ln_Cd_L15    =  F

    ==>>>   "NCAR" algorithm        (Large and Yeager 2008)

 bdy_init : open boundaries not used (ln_bdy = F)
 ~~~~~~~~

 zdf_phy_init: ocean vertical physics
 ~~~~~~~~~~~~
    Namelist namzdf : set vertical mixing mixing parameters
       adaptive-implicit vertical advection
          Courant number targeted application   ln_zad_Aimp =  F
       vertical closure scheme
          constant vertical mixing coefficient    ln_zdfcst =  F
          Richardson number dependent closure     ln_zdfric =  F
          Turbulent Kinetic Energy closure (TKE)  ln_zdftke =  F
          Generic Length Scale closure (GLS)      ln_zdfgls =  T
          OSMOSIS-OBL closure (OSM)               ln_zdfosm =  F
       convection: 
          enhanced vertical diffusion             ln_zdfevd =  F
             applied on momentum (=1/0)             nn_evdm =            0
             vertical coefficient for evd           rn_evd  =    100.00000000000000     
          non-penetrative convection (npc)        ln_zdfnpc =  F
             npc call  frequency                    nn_npc  =            1
             npc print frequency                    nn_npcp =          365
       double diffusive mixing                    ln_zdfddm =  F
          maximum avs for dd mixing                 rn_avts =    1.0000000000000000E-004
          heat/salt buoyancy flux ratio             rn_hsbfr=    1.6000000000000001     
       gravity wave-induced mixing
          surface  wave (Qiao et al 2010)         ln_zdfswm =  F
          internal wave (de Lavergne et al 2017)  ln_zdfiwm =  F
       coefficients : 
          vertical eddy viscosity                 rn_avm0   =    1.2000000000000000E-004
          vertical eddy diffusivity               rn_avt0   =    1.2000000000000000E-005
          constant background or profile          nn_avb    =            0
          horizontal variation for avtb           nn_havtb  =            0

    ==>>>   convection: no specific scheme used

    ==>>>   No  double diffusive mixing: avs = avt

 zdf_gls_init : GLS turbulent closure scheme
 ~~~~~~~~~~~~
    Namelist namzdf_gls : set gls mixing parameters
       minimum value of en                           rn_emin        =    9.9999999999999995E-008
       minimum value of eps                          rn_epsmin      =    9.9999999999999998E-013
       Limit dissipation rate under stable stratif.  ln_length_lim  =  T
       Galperin limit (Standard: 0.53, Holt: 0.26)   rn_clim_galp   =   0.26700000000000002     
       TKE Surface boundary condition                nn_bc_surf     =            1
       TKE Bottom boundary condition                 nn_bc_bot      =            1
       Modify psi Schmidt number (wb case)           ln_sigpsi      =  T
       Craig and Banner coefficient                  rn_crban       =    100.00000000000000     
       Charnock coefficient                          rn_charn       =    70000.000000000000     
       Surface roughness formula                     nn_z0_met      =            2
       surface wave breaking under ice               nn_z0_ice      =            1
    ==>>>   roughness uses rn_hsri and is weigthed by 1-TANH( fr_i(:,:) * 10 )
       Wave height frac. (used if nn_z0_met=2)       rn_frac_hs     =    1.3000000000000000     
       Stability functions                           nn_stab_func   =            2
       Type of closure                               nn_clos        =            1
       Surface roughness (m)                         rn_hsro        =    2.0000000000000000E-002
       Ice-ocean roughness (used if nn_z0_ice/=0)    rn_hsri        =    2.9999999999999999E-002

    Namelist namdrg_top/_bot:   used values:
       top    ocean cavity roughness (m)             rn_z0(_top)   =    0.0000000000000000     
       Bottom seafloor     roughness (m)             rn_z0(_bot)   =    0.0000000000000000     

    ==>>   k-eps closure chosen

    ==>>   Stability functions from Canuto A

    Limit values :
       Parameter  m =    1.5000000000000000     
       Parameter  n =   -1.0000000000000000     
       Parameter  p =    3.0000000000000000     
       rpsi1    =    1.4399999999999999     
       rpsi2    =    1.9199999999999999     
       rpsi3m   =  -0.62900000000000000     
       rpsi3p   =    1.0000000000000000     
       rsc_tke  =    1.0000000000000000     
       rsc_psi  =    1.2000000000000000     
       rsc_psi0 =    2.0061728395061729     
       rc0      =   0.52680000000000005     

    Shear free turbulence parameters:
       rcm_sf   =   0.73099999999999998     
       ra_sf    =   -1.5000000000000004     
       rl_sf    =   0.24342942450908961     

    ==>>   start from rest, set en and hmxl_n by background values

 zdf_drg_init : top and/or bottom drag setting
 ~~~~~~~~~~~~
    Namelist namdrg : top/bottom friction choices
       free-slip       : Cd = 0                  ln_drg_OFF  =  F
       linear  drag    : Cd = Cd0                ln_lin      =  F
       non-linear  drag: Cd = Cd0_nl |U|         ln_non_lin  =  T
       logarithmic drag: Cd = vkarmn/log(z/z0)   ln_loglayer =  F
       implicit friction                         ln_drgimp   =  T
       implicit ice-ocean drag                   ln_drgice_imp  = F

    Namelist namdrg_bot : set BOTTOM friction parameters
       drag coefficient                        rn_Cd0   =    1.0000000000000000E-003
       characteristic velocity (linear case)   rn_Uc0   =   0.40000000000000002       m/s
       non-linear drag maximum                 rn_Cdmax =   0.10000000000000001     
       background kinetic energy  (n-l case)   rn_ke0   =    2.5000000000000001E-003
       bottom roughness           (n-l case)   rn_z0    =    3.0000000000000001E-003
       set a regional boost of Cd0             ln_boost =  F
          associated boost factor              rn_boost =    50.000000000000000     

    ==>>>   quadratic BOTTOM friction (propotional to module of the velocity)
    with    a drag coefficient Cd0 =    1.0000000000000000E-003 , and
            a background velocity module of (rn_ke0)^1/2 =    5.0000000000000003E-002 m/s)

 ldf_tra_init : lateral tracer diffusion
 ~~~~~~~~~~~~ 
    Namelist : namtra_ldf --- lateral mixing parameters (type, direction, coefficients)
       type :
          no explicit diffusion                   ln_traldf_OFF   =  T
          laplacian operator                      ln_traldf_lap   =  F
          bilaplacian operator                    ln_traldf_blp   =  F
       direction of action :
          iso-level                               ln_traldf_lev   =  F
          horizontal (geopotential)               ln_traldf_hor   =  F
          iso-neutral Madec operator              ln_traldf_iso   =  F
          iso-neutral triad operator              ln_traldf_triad =  F
             use the Method of Stab. Correction   ln_traldf_msc   =  F
             maximum isoppycnal slope             rn_slpmax       =    1.0000000000000000E-002
             pure lateral mixing in ML            ln_triad_iso    =  F
             switching triad or not               rn_sw_triad     =    1.0000000000000000     
             lateral mixing on bottom             ln_botmix_triad =  F
       coefficients :
          type of time-space variation            nn_aht_ijk_t    =            0
             lateral diffusive velocity (if cst)  rn_Ud           =    1.0000000000000000E-002  m/s
             lateral diffusive length   (if cst)  rn_Ld           =    200000.00000000000       m

    ==>>>   NO lateral diffusion

    ==>>>   No diffusive operator selected. ahtu and ahtv are not allocated

 ldf_eiv_init : eddy induced velocity parametrization
 ~~~~~~~~~~~~ 
    Namelist namtra_eiv : 
       Eddy Induced Velocity (eiv) param.         ln_ldfeiv     =  F
       eiv streamfunction & velocity diag.        ln_ldfeiv_dia =  F
       coefficients :
          type of time-space variation            nn_aei_ijk_t  =            0
          lateral diffusive velocity (if cst)     rn_Ue         =    2.0000000000000000E-002  m/s
          lateral diffusive length   (if cst)     rn_Le         =    200000.00000000000       m

    ==>>>   eddy induced velocity param is NOT used

 ldf_dyn : lateral momentum physics
 ~~~~~~~
    Namelist namdyn_ldf : set lateral mixing parameters
       type :
          no explicit diffusion                ln_dynldf_OFF =  T
          laplacian operator                   ln_dynldf_lap =  F
          bilaplacian operator                 ln_dynldf_blp =  F
       direction of action :
          iso-level                            ln_dynldf_lev =  F
          horizontal (geopotential)            ln_dynldf_hor =  F
          iso-neutral                          ln_dynldf_iso =  F
       coefficients :
          type of time-space variation         nn_ahm_ijk_t  =            0
          lateral viscous velocity  (if cst)      rn_Uv      =   0.10000000000000001       m/s
          lateral viscous length    (if cst)      rn_Lv      =    10000.000000000000       m
          background viscosity (iso-lap case)     rn_ahm_b   =    0.0000000000000000       m2/s
       Smagorinsky settings (nn_ahm_ijk_t  = 32) :
          Smagorinsky coefficient              rn_csmc       =    3.5000000000000000     
          factor multiplier for eddy visc.
             lower limit (default 1.0)         rn_minfac    =    1.0000000000000000     
             upper limit (default 1.0)         rn_maxfac    =    1.0000000000000000     

    ==>>>   NO lateral viscosity

    ==>>>   No viscous operator selected. ahmt and ahmf are not allocated

 tra_qsr_init : penetration of the surface solar radiation
 ~~~~~~~~~~~~
    Namelist namtra_qsr : set the parameter of penetration
       RGB (Red-Green-Blue) light penetration       ln_qsr_rgb =  T
       2 band               light penetration       ln_qsr_2bd =  F
       bio-model            light penetration       ln_qsr_bio =  F
       RGB : Chl data (=1) or cst value (=0)        nn_chldta  =            0
       RGB & 2 bands: fraction of light (rn_si1)    rn_abs     =   0.57999999999999996     
       RGB & 2 bands: shortess depth of extinction  rn_si0     =   0.34999999999999998     
       2 bands: longest depth of extinction         rn_si1     =    23.000000000000000     

    ==>>>   R-G-B   light penetration 

    trc_oce_rgb : Initialisation of the optical look-up table
    ~~~~~~~~~~~ 
       RGB longest depth of extinction    r_si2 =    61.804697156983934     
         level of light extinction =           57  ref depth =    2514.1372022491223       m
    ==>>>   Constant Chlorophyll concentration = 0.05

 tra_bbc : Bottom Boundary Condition (bbc), apply a Geothermal heating
 ~~~~~~~   
    Namelist nambbc : set bbc parameters
       Apply a geothermal heating at ocean bottom   ln_trabbc     =  F
       type of geothermal flux                      nn_geoflx     =            2
       Constant geothermal flux value               rn_geoflx_cst =    8.6400000000000005E-002

    ==>>>   no geothermal heat flux

 tra_bbl_init : bottom boundary layer initialisation
 ~~~~~~~~~~~~
        Namelist nambbl : set bbl parameters
           bottom boundary layer flag          ln_trabbl  =  F

 tra_dmp_init : T and S newtonian relaxation
 ~~~~~~~~~~~~
    Namelist namtra_dmp : set relaxation parameters
       Apply relaxation   or not       ln_tradmp   =  F
          mixed layer damping option      nn_zdmp  =            0
          Damping file name               cn_resto = resto.nc                                                                                                                                                                                                


 tra_adv_init : choice/control of the tracer advection scheme
 ~~~~~~~~~~~~
    Namelist namtra_adv : chose a advection scheme for tracers
       No advection on T & S                     ln_traadv_OFF =  T
       centered scheme                           ln_traadv_cen =  F
             horizontal 2nd/4th order               nn_cen_h   =            2
             vertical   2nd/4th order               nn_cen_v   =            2
       Flux Corrected Transport scheme           ln_traadv_fct =  F
             horizontal 2nd/4th order               nn_fct_h   =            2
             vertical   2nd/4th order               nn_fct_v   =            2
       MUSCL scheme                              ln_traadv_mus =  F
             + upstream scheme near river mouths    ln_mus_ups =  F
       UBS scheme                                ln_traadv_ubs =  F
             vertical   2nd/4th order               nn_ubs_v   =            2
       QUICKEST scheme                           ln_traadv_qck =  F

    ==>>>   NO T-S advection

 tra_mle_init : mixed layer eddy (MLE) advection acting on tracers
 ~~~~~~~~~~~~~
    Namelist namtra_mle : mixed layer eddy advection applied on tracers
       use mixed layer eddy (MLE, i.e. Fox-Kemper param) (T/F)      ln_mle       =  F
          MLE type: =0 standard Fox-Kemper ; =1 new formulation        nn_mle    =            1
          magnitude of the MLE (typical value: 0.06 to 0.08)           rn_ce     =    5.9999999999999998E-002
          scale of ML front (ML radius of deformation) (rn_mle=0)      rn_lf     =    5000.0000000000000      m
          maximum time scale of MLE                    (rn_mle=0)      rn_time   =    172800.00000000000      s
          reference latitude (degrees) of MLE coef.    (rn_mle=1)      rn_lat    =    20.000000000000000      deg
          space interp. of MLD at u-(v-)pts (0=min,1=averaged,2=max)   nn_mld_uv =            0
          =1 no MLE in case of convection ; =0 always MLE              nn_conv   =            0
          Density difference used to define ML for FK              rn_rho_c_mle  =    1.0000000000000000E-002

    ==>>>   Mixed Layer Eddy parametrisation NOT used

 tra_ldf_init : lateral tracer diffusive operator
 ~~~~~~~~~~~~
    Namelist namtra_ldf: already read in ldftra module
       see ldf_tra_init report for lateral mixing parameters

    ==>>>   NO lateral diffusion

 dyn_dmp_init : U and V current Newtonian damping
 ~~~~~~~~~~~~
    Namelist namc1d_dyndmp : Set damping flag
       add a damping term or not       ln_dyndmp =  F
    Namelist namtra_dmp    : Set damping parameters
       Apply relaxation   or not       ln_tradmp =  F
       mixed layer damping option      nn_zdmp   =            0
       Damping file name               cn_resto  = resto.nc                                                                                                                                                                                                


 dyn_adv_init : choice/control of the momentum advection scheme
 ~~~~~~~~~~~~
    Namelist namdyn_adv : chose a advection formulation & scheme for momentum
       linear dynamics : no momentum advection          ln_dynadv_OFF  =  T
       Vector form: 2nd order centered scheme           ln_dynadv_vec  =  F
          with Hollingsworth scheme (=1) or not (=0)       nn_dynkeg   =            0
       flux form: 2nd order centred scheme              ln_dynadv_cen2 =  F
                  3rd order UBS scheme                  ln_dynadv_ubs  =  F

    ==>>>   linear dynamics : no momentum advection used

 dyn_vor_init : vorticity term : read namelist and control the consistency
 ~~~~~~~~~~~~
    Namelist namdyn_vor : choice of the vorticity term scheme
       enstrophy conserving scheme                    ln_dynvor_ens =  F
       f-point energy conserving scheme               ln_dynvor_ene =  T
       t-point energy conserving scheme               ln_dynvor_enT =  F
       energy conserving scheme  (een using e3t)      ln_dynvor_eeT =  F
       enstrophy and energy conserving scheme         ln_dynvor_een =  F
          e3f = averaging /4 (=0) or /sum(tmask) (=1)    nn_een_e3f =            0
       mixed enstrophy/energy conserving scheme       ln_dynvor_mix =  F
       masked (=T) or unmasked(=F) vorticity          ln_dynvor_msk =  F

       change fmask value in the angles (T)           ln_vorlat =  F

    ==>>>   linear dynamics : total vorticity = Coriolis

    ==>>>   energy conserving scheme (Coriolis at F-points) (ENE)

 dyn_ldf_init : Choice of the lateral diffusive operator on dynamics
 ~~~~~~~~~~~~
    Namelist namdyn_ldf: already read in ldfdyn module
       see ldf_dyn_init report for lateral mixing parameters

    ==>>>   NO lateral viscosity

 dyn_hpg_init : hydrostatic pressure gradient initialisation
 ~~~~~~~~~~~~
    Namelist namdyn_hpg : choice of hpg scheme
       z-coord. - full steps                             ln_hpg_zco    =  F
       z-coord. - partial steps (interpolation)          ln_hpg_zps    =  F
       s-coord. (standard jacobian formulation)          ln_hpg_sco    =  T
       s-coord. (standard jacobian formulation) for isf  ln_hpg_isf    =  F
       s-coord. (Density Jacobian: Cubic polynomial)     ln_hpg_djc    =  F
       s-coord. (Pressure Jacobian: Cubic polynomial)    ln_hpg_prj    =  F

    ==>>>   s-coord. (standard jacobian formulation)


 dyn_spg_init : choice of the surface pressure gradient scheme
 ~~~~~~~~~~~~
    Namelist : namdyn_spg                    
       Explicit free surface                  ln_dynspg_exp =  F
       Free surface with time splitting       ln_dynspg_ts  =  T

    ==>>>   free surface with time splitting scheme

 dyn_spg_ts_init : split-explicit free surface
 ~~~~~~~~~~~~~~~
      ln_ts_auto =.true. Automatically set nn_baro 
      Max. courant number allowed:   0.80000000000000004     
      ln_bt_av =.true.  ==> Time averaging over nn_baro time steps is on 
      ln_bt_fw =.false.=> Centred integration of barotropic variables 
      Time filter choice, nn_bt_flt:            1
            Boxcar: width = nn_baro
  
      nn_baro =        12903
      Barotropic time step [s] is :  0.27900488258544526     
      Maximum Courant number is   :  0.79995395297585592     
      Time diffusion parameter rn_bt_alpha:    0.0000000000000000     

    ==>>>   start from rest: set barotropic values to 0

 trc_init : initial set up of the passive tracers
 ~~~~~~~~

 trc_nam_run : read the passive tracer namelists
 ~~~~~~~~~~~
    Namelist : namtrc_run
       time step freq. for passive tracer           nn_dttrc      =            1
       restart  for passive tracer                  ln_rsttr      =  F
       control of time step for passive tracer      nn_rsttr      =            0
       first time step for pass. trac.              nittrc000     =            1
       Use euler integration for TRC (y/n)          ln_top_euler  =  F

 trc_nam_trc : read the passive tracer namelists
 ~~~~~~~~~~~
    Namelist : namtrc
       Total number of passive tracers              jptra         =           24
       Total number of BGC tracers                  jp_bgc        =           24
       Simulating PISCES model                      ln_pisces     =  T
       Simulating FABM  model                       ln_fabm       =  F
       Simulating water mass age                    ln_age        =  F
       Simulating CFC11 passive tracer              ln_cfc11      =  F
       Simulating CFC12 passive tracer              ln_cfc12      =  F
       Simulating SF6 passive tracer                ln_sf6        =  F
       Total number of CFCs tracers                 jp_cfc        =            0
       Simulating C14   passive tracer              ln_c14        =  F
       Read inputs data from file (y/n)             ln_trcdta     =  F
       Damping of passive tracer (y/n)              ln_trcdmp     =  F
       Restoring of tracer on closed seas           ln_trcdmp_clo =  F

    ==>>>   All the passive tracers are initialised with constant values 

    ==>>>   Passive Tracer  time step    rdttrc = nn_dttrc*rdt =    3600.0000000000000     



 trc_nam_pisces : read PISCES namelist
 ~~~~~~~~~~~~~~
    Namelist : nampismod 
       Flag to use LOBSTER model            ln_p2z      =  F
       Flag to use PISCES standard model    ln_p4z      =  T
       Flag to use PISCES quota    model    ln_p5z      =  F
       Flag to ligand                       ln_ligand   =  F
       Flag to use sediment                 ln_sediment =  F

    ==>>>   PISCES STANDARD model is used

 p4z_ini :   PISCES biochemical model initialisation
 ~~~~~~~

 p4z_sms_init : PISCES initialization
 ~~~~~~~~~~~~
    Namelist : nampisbio
       frequency for the biology                 nrdttrc     =           1
       POC sinking speed                         wsbio       =   0.0000000000000000     
       half saturation constant for mortality    xkmort      =   1.9999999999999999E-007
       Fe/C in zooplankton                       ferat3      =   1.0000000000000001E-005
       Big particles sinking speed               wsbio2      =   0.0000000000000000     
       Big particles maximum sinking speed       wsbio2max   =   0.0000000000000000     
       Big particles sinking speed length scale  wsbio2scale =   5000.0000000000000     

    Namelist : nampisdmp --- relaxation to GLODAP
       Relaxation of tracer to glodap mean value   ln_pisdmp = T
       Frequency of Relaxation                     nn_pisdmp =        5475

    Namelist : nampismass  --- mass conservation checking
       Flag to check mass conservation of NO3/Si/TALK   ln_check_mass =  F

  Level corresponding to 100m depth           25


 p4z_opt_init : 
 ~~~~~~~~~~~~ 
    Namelist : nampisopt 
       PAR as a variable fraction of SW     ln_varpar      =  F
       Default value for the PAR fraction   parlux         =   0.42999999999999999     

 p4z_lim_init : initialization of nutrient limitations
 ~~~~~~~~~~~~
    Namelist : namp4zlim
       mean rainratio                           caco3r    =   0.29999999999999999     
       NO3 half saturation of nanophyto         concnno3  =    9.9999999999999995E-007
       NO3 half saturation of diatoms           concdno3  =    3.0000000000000001E-006
       NH4 half saturation for phyto            concnnh4  =    9.9999999999999995E-008
       NH4 half saturation for diatoms          concdnh4  =    2.9999999999999999E-007
       half saturation constant for Si uptake   xksi1     =    1.9999999999999999E-006
       half saturation constant for Si/C        xksi2     =    2.0000000000000002E-005
       half-sat. of DOC remineralization        xkdoc     =    4.1700000000000000E-004
       Iron half saturation for nanophyto       concnfer  =    1.0000000000000001E-009
       Iron half saturation for diatoms         concdfer  =    3.0000000000000000E-009
       size ratio for nanophytoplankton         xsizern   =    3.0000000000000000     
       size ratio for diatoms                   xsizerd   =    3.0000000000000000     
       NO3 half saturation of bacteria          concbno3  =    1.9999999999999999E-007
       NH4 half saturation for bacteria         concbnh4  =    2.0000000000000000E-008
       Minimum size criteria for diatoms        xsizedia  =    9.9999999999999995E-007
       Minimum size criteria for nanophyto      xsizephy  =    9.9999999999999995E-007
       Fe half saturation for bacteria          concbfe   =    9.9999999999999994E-012
       halk saturation constant for anoxia       oxymin   =   9.9999999999999995E-007
       optimal Fe quota for nano.               qnfelim   =    6.9999999999999999E-006
       Optimal Fe quota for diatoms             qdfelim   =    6.9999999999999999E-006

 p4z_prod_init : phytoplankton growth
 ~~~~~~~~~~~~~
    Namelist : namp4zprod
       mean Si/C ratio                           grosip       =  0.15900000000000000     
       P-I slope                                 pislopen     =   2.0000000000000000     
       Acclimation factor to low light           xadap        =   0.0000000000000000     
       excretion ratio of nanophytoplankton      excretn      =   5.0000000000000003E-002
       excretion ratio of diatoms                excretd      =   5.0000000000000003E-002
       basal respiration in phytoplankton        bresp        =   3.3000000000000002E-002
       Maximum Chl/C in phytoplankton            chlcmin      =   4.0000000000000001E-003
       P-I slope  for diatoms                    pisloped     =   2.0000000000000000     
       Minimum Chl/C in nanophytoplankton        chlcnm       =   3.3000000000000002E-002
       Minimum Chl/C in diatoms                  chlcdm       =   5.0000000000000003E-002
       Maximum Fe/C in nanophytoplankton         fecnm        =   4.0000000000000003E-005
       Minimum Fe/C in diatoms                   fecdm        =   4.0000000000000003E-005

 p4z_sbc_init : initialization of the external sources of nutrients 
 ~~~~~~~~~~~~ 
    Namelist : nampissbc 
       dust input from the atmosphere           ln_dust     =  F
       Variable solubility of iron input        ln_solub    =  F
       river input of nutrients                 ln_river    =  F
       atmospheric deposition of n              ln_ndepo    =  F
       Fe input from sediments                  ln_ironsed  =  F
       Fe input from seaice                     ln_ironice  =  F
       fe input from hydrothermal vents         ln_hydrofe  =  F
       coastal release of iron                  sedfeinput  =    2.0000000000000001E-009
       distance off the coast                   distcoast   =    5000.0000000000000     
       solubility of the dust                   dustsolub   =    2.0000000000000000E-002
       Mineral Fe content of the dust           mfrac       =    3.5000000000000003E-002
       Iron concentration in sea ice            icefeinput  =    1.4999999999999999E-008
       sinking speed of the dust                wdust       =    2.0000000000000000     
       nitrogen fixation rate                   nitrfix     =    9.9999999999999995E-008
       nitrogen fixation sensitivty to light    diazolight  =    50.000000000000000     
       Fe half-saturation cste for diazotrophs  concfediaz  =    1.0000000000000000E-010
       Fe to 3He ratio assumed for vent iron supply hratio  =    10000000.000000000     

     Total input of elements from river supply
     ~~~~~~~~~~~~~~~~~~~~~~~~~~~~~~~~~~~~~~~~~
     N Supply   :    0.0000000000000000       TgN/yr
     Si Supply  :    0.0000000000000000       TgSi/yr
     P Supply   :    0.0000000000000000       TgP/yr
     Alk Supply :    0.0000000000000000       Teq/yr
     DIC Supply :    0.0000000000000000       TgC/yr


 p4z_rem_init : Initialization of iron chemistry parameters
 ~~~~~~~~~~~~
    Namelist : nampisfer
       variable concentration of ligand          ln_ligvar    = F
       scavenging rate of Iron                   xlam1        =   5.0000000000000001E-003
       scavenging rate of Iron by dust           xlamdust     =   150.00000000000000     
       ligand concentration in the ocean         ligand       =   6.9999999999999996E-010
       rate constant for nanoparticle formation  kfep         =   1.0000000000000000E-002

 p4z_rem_init : Initialization of remineralization parameters
 ~~~~~~~~~~~~
    Namelist parameters for remineralization, nampisrem
       remineralization rate of DOC              xremik    =  0.29999999999999999     
       remineralization rate of Si               xsirem    =   3.0000000000000001E-003
       fast remineralization rate of Si          xsiremlab =   2.9999999999999999E-002
       fraction of labile biogenic silica        xsilab    =  0.50000000000000000     
       NH4 nitrification rate                    nitrif    =   5.0000000000000003E-002
       Bacterial Fe/C ratio                      feratb    =   1.0000000000000001E-005
       Half-saturation constant for bact. Fe/C   xkferb    =   3.0000000000000000E-010

 p4z_poc_init : Initialization of remineralization parameters
 ~~~~~~~~~~~~
    Namelist : nampispoc
       remineralisation rate of POC              xremip    =   3.5000000000000003E-002
       Number of lability classes for POC        jcpoc     =          15
       Shape factor of the gamma distribution    rshape    =   1.0000000000000000     

 p4z_mort_init : Initialization of phytoplankton mortality parameters
 ~~~~~~~~~~~~~
    Namelist : namp4zmort
       quadratic mortality of phytoplankton        wchl   =   1.0000000000000000E-002
       maximum quadratic mortality of diatoms      wchld  =   1.0000000000000000E-002
       maximum quadratic mortality of diatoms      wchldm =   2.9999999999999999E-002
       phytoplankton mortality rate                mprat  =   1.0000000000000000E-002
       Diatoms mortality rate                      mprat2 =   1.0000000000000000E-002

 p4z_micro_init : Initialization of microzooplankton parameters
 ~~~~~~~~~~~~~~
    Namelist : namp4zzoo
       part of calcite not dissolved in microzoo guts  part        =  0.50000000000000000     
       microzoo preference for POC                     xprefc      =  0.10000000000000001     
       microzoo preference for nano                    xprefn      =   1.0000000000000000     
       microzoo preference for diatoms                 xprefd      =  0.59999999999999998     
       diatoms feeding threshold  for microzoo         xthreshdia  =   1.0000000000000000E-008
       nanophyto feeding threshold for microzoo        xthreshphy  =   1.0000000000000000E-008
       poc feeding threshold for microzoo              xthreshpoc  =   1.0000000000000000E-008
       feeding threshold for microzooplankton          xthresh     =   2.9999999999999999E-007
       exsudation rate of microzooplankton             resrat      =   2.9999999999999999E-002
       microzooplankton mortality rate                 mzrat       =   4.0000000000000001E-003
       maximal microzoo grazing rate                   grazrat     =   3.0000000000000000     
       non assimilated fraction of P by microzoo       unass       =  0.29999999999999999     
       Efficicency of microzoo growth                  epsher      =  0.29999999999999999     
       Minimum efficicency of microzoo growth          epshermin   =  0.29999999999999999     
       Fraction of microzoo excretion as DOM           sigma1      =  0.59999999999999998     
       half sturation constant for grazing 1           xkgraz      =   2.0000000000000002E-005

 p4z_meso_init : Initialization of mesozooplankton parameters
 ~~~~~~~~~~~~~
    Namelist : namp4zmes
       part of calcite not dissolved in mesozoo guts  part2        =  0.75000000000000000     
       mesozoo preference for phyto                   xpref2n      =  0.29999999999999999     
       mesozoo preference for diatoms                 xpref2d      =   1.0000000000000000     
       mesozoo preference for zoo                     xpref2z      =   1.0000000000000000     
       mesozoo preference for poc                     xpref2c      =  0.29999999999999999     
       microzoo feeding threshold  for mesozoo        xthresh2zoo  =   1.0000000000000000E-008
       diatoms feeding threshold  for mesozoo         xthresh2dia  =   1.0000000000000000E-008
       nanophyto feeding threshold for mesozoo        xthresh2phy  =   1.0000000000000000E-008
       poc feeding threshold for mesozoo              xthresh2poc  =   1.0000000000000000E-008
       feeding threshold for mesozooplankton          xthresh2     =   2.9999999999999999E-007
       exsudation rate of mesozooplankton             resrat2      =   5.0000000000000001E-003
       mesozooplankton mortality rate                 mzrat2       =   2.9999999999999999E-002
       maximal mesozoo grazing rate                   grazrat2     =  0.75000000000000000     
       mesozoo flux feeding rate                      grazflux     =   3000.0000000000000     
       non assimilated fraction of P by mesozoo       unass2       =  0.29999999999999999     
       Efficiency of Mesozoo growth                   epsher2      =  0.34999999999999998     
       Minimum Efficiency of Mesozoo growth           epsher2min  =  0.34999999999999998     
       Fraction of mesozoo excretion as DOM           sigma2       =  0.59999999999999998     
       half sturation constant for grazing 2          xkgraz2      =   2.0000000000000002E-005

 p4z_lys_init : initialization of CaCO3 dissolution
 ~~~~~~~~~~~~
    Namelist : nampiscal
       diss. rate constant calcite (per month)        kdca =   6.0000000000000000     
       order of reaction for calcite dissolution      nca  =   1.0000000000000000     

  p4z_flx_init : atmospheric conditions for air-sea flux calculation
  ~~~~~~~~~~~~
    Namelist : nampisext --- parameters for air-sea exchange
       reading in the atm pCO2 file or constant value   ln_co2int = F

  p4z_patm : sea-level atmospheric pressure
  ~~~~~~~~
    Namelist : nampisatm --- Atmospheric Pressure as external forcing
       constant atmopsheric pressure (F) or from a file (T)  ln_presatm    =  F
       spatial atmopsheric CO2 for flux calcs                ln_presatmco2 =  F
          Constant Atmospheric pCO2 value               atcco2    =   280.00000000000000     

    ==>>>   Initialization of PISCES tracers done


 trc_init_sms : Summary for selected passive tracers
 ~~~~~~~~~~~~
     ID     NAME     INI  SBC  CBC  OBC
     1        DIC    T    F    F    F
     2   Alkalini    T    F    F    F
     3         O2    T    F    F    F
     4      CaCO3    F    F    F    F
     5        PO4    T    F    F    F
     6        POC    F    F    F    F
     7         Si    T    F    F    F
     8        PHY    F    F    F    F
     9        ZOO    F    F    F    F
    10        DOC    T    F    F    F
    11       PHY2    F    F    F    F
    12       ZOO2    F    F    F    F
    13        DSi    F    F    F    F
    14        Fer    T    F    F    F
    15        BFe    F    F    F    F
    16        GOC    F    F    F    F
    17        SFe    F    F    F    F
    18        DFe    F    F    F    F
    19        GSi    F    F    F    F
    20        NFe    F    F    F    F
    21       NCHL    F    F    F    F
    22       DCHL    F    F    F    F
    23        NO3    T    F    F    F
    24        NH4    F    F    F    F

 trc_adv_ini : choice/control of the tracer advection scheme
 ~~~~~~~~~~~
    Namelist namtrc_adv : chose a advection scheme for tracers
       No advection on passive tracers           ln_trcadv_OFF =  T
       centered scheme                           ln_trcadv_cen =  F
             horizontal 2nd/4th order               nn_cen_h   =            2
             vertical   2nd/4th order               nn_cen_v   =            2
       Flux Corrected Transport scheme           ln_trcadv_fct =  F
             horizontal 2nd/4th order               nn_fct_h   =            2
             vertical   2nd/4th order               nn_fct_v   =            2
       MUSCL scheme                              ln_trcadv_mus =  F
             + upstream scheme near river mouths    ln_mus_ups =  F
       UBS scheme                                ln_trcadv_ubs =  F
             vertical   2nd/4th order               nn_ubs_v   =            2
       QUICKEST scheme                           ln_trcadv_qck =  F

       ===>>   NO passive tracer advection

 trc_ldf_ini : lateral passive tracer diffusive operator
 ~~~~~~~~~~~
    Namelist namtrc_ldf : set lateral mixing parameters (type, direction, coefficients)
       no explicit diffusion                 ln_trcldf_OFF   =  F
       use active tracer operator            ln_trcldf_tra   =  T
       diffusivity coefficient :
          multiplier of TRA coef. for TRC       rn_ldf_multi =    1.0000000000000000     
          enhanced zonal Eq. laplacian coef.    rn_fact_lap  =    1.0000000000000000     

       ===>>   NO lateral diffusion

 trc_rad : Correct artificial negative concentrations 
 ~~~~~~~ 
    Namelist namtrc_rad : treatment of negative concentrations
       correct artificially negative concen. or not   ln_trcrad =  T

       ===>>   ensure the global tracer conservation

 trc_sink : Sedimentation of particles 
 ~~~~~~~ 
    Namelist namtrc_snk : sedimentation of particles
    Maximum number of iterations   nitermax =            1


 trc_ice_ini : Initialize sea ice tracer boundary condition
 ~~~~~~~~~~~~~

 trc_nam_ice : Read the namelist for trc_ice
 ~~~~~~~~~~~~~~~~~~~~~~~~~~~~~~~~~~~~~~~~~~~
  
    Namelist : namtrc_ice
       Sea ice tracers option (nn_ice_tr) :           -1

 trc_ini_inv : initial passive tracers inventories
 ~~~~~~~~~~~

    ==>>>   Total number of passive tracer jptra =           24
            Total volume of ocean                =    41913670.932975553     
            Total inital content of all tracers 

      tracer nb :  1      name :       DIC      initial content :  0.9690440720E+05
      tracer nb :  2      name :  Alkalini      initial content :  0.1016825657E+06
      tracer nb :  3      name :        O2      initial content :  0.7443867958E+04
      tracer nb :  4      name :     CaCO3      initial content :  0.4191367093E+00
      tracer nb :  5      name :       PO4      initial content :  0.1107065790E+05
      tracer nb :  6      name :       POC      initial content :  0.4191367093E+00
      tracer nb :  7      name :        Si      initial content :  0.3835520027E+04
      tracer nb :  8      name :       PHY      initial content :  0.4191367093E+00
      tracer nb :  9      name :       ZOO      initial content :  0.4191367093E+00
      tracer nb : 10      name :       DOC      initial content :  0.4191367093E+00
      tracer nb : 11      name :      PHY2      initial content :  0.4191367093E+00
      tracer nb : 12      name :      ZOO2      initial content :  0.4191367093E+00
      tracer nb : 13      name :       DSi      initial content :  0.6287050640E-01
      tracer nb : 14      name :       Fer      initial content :  0.2514820256E-01
      tracer nb : 15      name :       BFe      initial content :  0.2095683547E-05
      tracer nb : 16      name :       GOC      initial content :  0.4191367093E+00
      tracer nb : 17      name :       SFe      initial content :  0.2095683547E-05
      tracer nb : 18      name :       DFe      initial content :  0.2095683547E-05
      tracer nb : 19      name :       GSi      initial content :  0.2095683547E-05
      tracer nb : 20      name :       NFe      initial content :  0.2095683547E-05
      tracer nb : 21      name :      NCHL      initial content :  0.9144800931E-01
      tracer nb : 22      name :      DCHL      initial content :  0.9144800931E-01
      tracer nb : 23      name :       NO3      initial content :  0.9875384793E+04
      tracer nb : 24      name :       NH4      initial content :  0.4191367093E+00



 icb_nam : iceberg initialization through namberg namelist read
 ~~~~~~~~ 

    ==>>>   No icebergs used

 sto_par_init : NO use of stochastic parameterization
 ~~~~~~~~~~~~

 flo_stp : call floats routine 
 ~~~~~~~

          Namelist floats :
             Activate floats or not                   ln_floats    =  F
                number of floats                      jpnfl        =            1
                number of new floats                  jpnflnewflo  =            0
                restart                               ln_rstflo    =  F
                frequency of float output file        nn_writefl   =           75
                frequency of float restart file       nn_stockfl   =         5475
                Argo type floats                      ln_argo      =  F
                Computation of T trajectories         ln_flork4    =  F
                Use of ariane convention              ln_ariane    =  T
                ascii output (T) or netcdf output (F) ln_flo_ascii =  T

 dia_ptr_init : poleward transport and msf initialization
 ~~~~~~~~~~~~
    Namelist namptr : set ptr parameters
       Poleward heat & salt transport (T) or not (F)      ln_diaptr  =  F
  
 diadct_init: compute transports through sections 
 ~~~~~~~~~~~~~~~~~~~~~
        Calculate transport thru sections: ln_diadct =  F
        Frequency of computation:          nn_dct    =           15
        Frequency of write:                nn_dctwri =           15
        Debug section number:          112

 dia_hsb_init : heat and salt budgets diagnostics
 ~~~~~~~~~~~~ 
    Namelist  namhsb :
       check the heat and salt budgets (T) or not (F)       ln_diahsb =  F

 trd_init : Momentum/Tracers trends
 ~~~~~~~~
    Namelist namtrd : set trends parameters
       global domain averaged dyn & tra trends   ln_glo_trd  =  F
       U & V trends: 3D output                   ln_dyn_trd  =  F
       U & V trends: Mixed Layer averaged        ln_dyn_mxl  =  F
       T & S trends: 3D output                   ln_tra_trd  =  F
       T & S trends: Mixed Layer averaged        ln_tra_mxl  =  F
       Kinetic   Energy trends                   ln_KE_trd   =  F
       Potential Energy trends                   ln_PE_trd   =  F
       Barotropic vorticity trends               ln_vor_trd  =  F
       frequency of trends diagnostics (glo)     nn_trd      =          365

 dia_obs_init : NO Observation diagnostic used
 ~~~~~~~~~~~~

 dia_25h_init : Output 25 hour mean diagnostics
 ~~~~~~~~~~~~
    Namelist nam_dia25h : set 25h outputs 
       Switch for 25h diagnostics (T) or not (F)  ln_dia25h  =  F

 dia_harm_init: Tidal harmonic analysis initialization
 ~~~~~~~~~~~~~ 
 Tidal diagnostics =  F
    First time step used for analysis:         nit000_han=            1
    Last  time step used for analysis:         nitend_han=           75
    Time step frequency for harmonic analysis: nstep_han =           15

AAAAAAAA


AAAAAAAA

                     iom_nf90_open ~~~ open existing file: ./forcing_C1D_PAPA.nc in READ mode
                    ---> ./forcing_C1D_PAPA.nc OK
           read sowinu10 (rec:   1320) in ./forcing_C1D_PAPA.nc ok
   fld_init : time-interpolation for sowinu10 read previous record =   1320 at time =  164.94 days
                     iom_nf90_open ~~~ open existing file: ./forcing_C1D_PAPA.nc in READ mode
                    ---> ./forcing_C1D_PAPA.nc OK
           read sowinv10 (rec:   1320) in ./forcing_C1D_PAPA.nc ok
   fld_init : time-interpolation for sowinv10 read previous record =   1320 at time =  164.94 days
                     iom_nf90_open ~~~ open existing file: ./forcing_C1D_PAPA.nc in READ mode
                    ---> ./forcing_C1D_PAPA.nc OK
           read sotemair (rec:   1320) in ./forcing_C1D_PAPA.nc ok
   fld_init : time-interpolation for sotemair read previous record =   1320 at time =  164.94 days
                     iom_nf90_open ~~~ open existing file: ./forcing_C1D_PAPA.nc in READ mode
                    ---> ./forcing_C1D_PAPA.nc OK
           read sohumspe (rec:   1320) in ./forcing_C1D_PAPA.nc ok
   fld_init : time-interpolation for sohumspe read previous record =   1320 at time =  164.94 days
                     iom_nf90_open ~~~ open existing file: ./forcing_C1D_PAPA.nc in READ mode
                    ---> ./forcing_C1D_PAPA.nc OK
           read somslpre (rec:   1320) in ./forcing_C1D_PAPA.nc ok
   fld_init : time-interpolation for somslpre read previous record =   1320 at time =  164.94 days
           read sowinu10 (rec:   1321) in ./forcing_C1D_PAPA.nc ok
           read sowinv10 (rec:   1321) in ./forcing_C1D_PAPA.nc ok
           read sotemair (rec:   1321) in ./forcing_C1D_PAPA.nc ok
           read sohumspe (rec:   1321) in ./forcing_C1D_PAPA.nc ok
                     iom_nf90_open ~~~ open existing file: ./forcing_C1D_PAPA.nc in READ mode
                    ---> ./forcing_C1D_PAPA.nc OK
           read sosudosw (rec:   1321) in ./forcing_C1D_PAPA.nc ok
                     iom_nf90_open ~~~ open existing file: ./forcing_C1D_PAPA.nc in READ mode
                    ---> ./forcing_C1D_PAPA.nc OK
           read sosudolw (rec:   1321) in ./forcing_C1D_PAPA.nc ok
                     iom_nf90_open ~~~ open existing file: ./forcing_C1D_PAPA.nc in READ mode
                    ---> ./forcing_C1D_PAPA.nc OK
           read sowaprec (rec:   1321) in ./forcing_C1D_PAPA.nc ok
                     iom_nf90_open ~~~ open existing file: ./forcing_C1D_PAPA.nc in READ mode
                    ---> ./forcing_C1D_PAPA.nc OK
           read sososnow (rec:   1321) in ./forcing_C1D_PAPA.nc ok
           read somslpre (rec:   1321) in ./forcing_C1D_PAPA.nc ok
   fld_read: var sowinu10 kt =        1 ( 165.0208 days), Y/M/D = 2010/06/15, records b/a:   1320/  1321 (days  164.9375/ 165.0625)
       it_offset is :            0
   fld_read: var sowinv10 kt =        1 ( 165.0208 days), Y/M/D = 2010/06/15, records b/a:   1320/  1321 (days  164.9375/ 165.0625)
       it_offset is :            0
   fld_read: var sotemair kt =        1 ( 165.0208 days), Y/M/D = 2010/06/15, records b/a:   1320/  1321 (days  164.9375/ 165.0625)
       it_offset is :            0
   fld_read: var sohumspe kt =        1 ( 165.0208 days), Y/M/D = 2010/06/15, records b/a:   1320/  1321 (days  164.9375/ 165.0625)
       it_offset is :            0
   fld_read: var sosudosw kt =        1 ( 165.0208 days), Y/M/D = 2010/06/15, record:   1321 (days  165.0000 <->  165.1250)
   fld_read: var sosudolw kt =        1 ( 165.0208 days), Y/M/D = 2010/06/15, record:   1321 (days  165.0000 <->  165.1250)
   fld_read: var sowaprec kt =        1 ( 165.0208 days), Y/M/D = 2010/06/15, record:   1321 (days  165.0000 <->  165.1250)
   fld_read: var sososnow kt =        1 ( 165.0208 days), Y/M/D = 2010/06/15, record:   1321 (days  165.0000 <->  165.1250)
   fld_read: var somslpre kt =        1 ( 165.0208 days), Y/M/D = 2010/06/15, records b/a:   1320/  1321 (days  164.9375/ 165.0625)
       it_offset is :            0
           nit000-1 surface forcing fields set to nit000

 zdf_mxl : mixed layer depth
 ~~~~~~~ 

 ssh_nxt : after sea surface height
 ~~~~~~~ 

 div_hor : horizontal velocity divergence 
 ~~~~~~~   

 dom_vvl_sf_nxt : compute after scale factors
 ~~~~~~~~~~~~~~

 wzv : now vertical velocity 
 ~~~~~ 

  ===>>> : W A R N I N G

          ===============

 Coupling with passive tracers and used of diurnal cycle.
 Computation of a daily mean shortwave for some biogeochemical models


  Sampling frequency dt =    3600.0000000000000      s   Number of sampling per day  nrec =           24

 trc_qsr_mean:   qsr_mean set to nit000 values

  p4z_dmp : Restoring of nutrients at time-step kt =            1


     Passive Tracer  time step    rfact  =    3600.0000000000000       rdt =    3600.0000000000000     
     PISCES  Biology time step    rfact2 =    3600.0000000000000     


 trc_sbc : Passive tracers surface boundary condition
 ~~~~~~~ 

 trc_nxt : time stepping on passive tracers

 tra_sbc : TRAcer Surface Boundary Condition
 ~~~~~~~ 

 tra_qsr : penetration of the surface solar radiation
 ~~~~~~~

 tra_zdf : implicit vertical mixing on T & S
 ~~~~~~~ 

 tra_nxt : achieve the time stepping by Asselin filter and array swap
 ~~~~~~~

 dyn_cor_c1d : total vorticity trend in 1D
 ~~~~~~~~~~

 dyn_zdf_imp : vertical momentum diffusion implicit operator
 ~~~~~~~~~~~ 

 dyn_nxt : time stepping
 ~~~~~~~

 ssh_swp : Asselin time filter and swap of sea surface height
 ~~~~~~~ 

 dom_vvl_sf_swp : - time filter and swap of scale factors
 ~~~~~~~~~~~~~~   - interpolate scale factors and compute depths for next time step

 stp_ctl : time-stepping control
 ~~~~~~~
      file   : time.step open ok
      unit   =           27
      status = REPLACE
      form   = FORMATTED
      access = SEQUENTIAL

      file   : run.stat open ok
      unit   =           28
      status = REPLACE
      form   = FORMATTED
      access = SEQUENTIAL

   fld_read: var sowinu10 kt =        2 ( 165.0625 days), Y/M/D = 2010/06/15, records b/a:   1320/  1321 (days  164.9375/ 165.0625)
       it_offset is :            0
   fld_read: var sowinv10 kt =        2 ( 165.0625 days), Y/M/D = 2010/06/15, records b/a:   1320/  1321 (days  164.9375/ 165.0625)
       it_offset is :            0
   fld_read: var sotemair kt =        2 ( 165.0625 days), Y/M/D = 2010/06/15, records b/a:   1320/  1321 (days  164.9375/ 165.0625)
       it_offset is :            0
   fld_read: var sohumspe kt =        2 ( 165.0625 days), Y/M/D = 2010/06/15, records b/a:   1320/  1321 (days  164.9375/ 165.0625)
       it_offset is :            0
   fld_read: var sosudosw kt =        2 ( 165.0625 days), Y/M/D = 2010/06/15, record:   1321 (days  165.0000 <->  165.1250)
   fld_read: var sosudolw kt =        2 ( 165.0625 days), Y/M/D = 2010/06/15, record:   1321 (days  165.0000 <->  165.1250)
   fld_read: var sowaprec kt =        2 ( 165.0625 days), Y/M/D = 2010/06/15, record:   1321 (days  165.0000 <->  165.1250)
   fld_read: var sososnow kt =        2 ( 165.0625 days), Y/M/D = 2010/06/15, record:   1321 (days  165.0000 <->  165.1250)
   fld_read: var somslpre kt =        2 ( 165.0625 days), Y/M/D = 2010/06/15, records b/a:   1320/  1321 (days  164.9375/ 165.0625)
       it_offset is :            0
  New shortwave to sample for TOP at time kt =            2  time =    2.0000000000000000      hours 

     Passive Tracer  time step    rfact  =    7200.0000000000000       rdt =    3600.0000000000000     
     PISCES  Biology time step    rfact2 =    7200.0000000000000     

           read sowinu10 (rec:   1322) in ./forcing_C1D_PAPA.nc ok
           read sowinv10 (rec:   1322) in ./forcing_C1D_PAPA.nc ok
           read sotemair (rec:   1322) in ./forcing_C1D_PAPA.nc ok
           read sohumspe (rec:   1322) in ./forcing_C1D_PAPA.nc ok
           read somslpre (rec:   1322) in ./forcing_C1D_PAPA.nc ok
   fld_read: var sowinu10 kt =        3 ( 165.1042 days), Y/M/D = 2010/06/15, records b/a:   1321/  1322 (days  165.0625/ 165.1875)
       it_offset is :            0
   fld_read: var sowinv10 kt =        3 ( 165.1042 days), Y/M/D = 2010/06/15, records b/a:   1321/  1322 (days  165.0625/ 165.1875)
       it_offset is :            0
   fld_read: var sotemair kt =        3 ( 165.1042 days), Y/M/D = 2010/06/15, records b/a:   1321/  1322 (days  165.0625/ 165.1875)
       it_offset is :            0
   fld_read: var sohumspe kt =        3 ( 165.1042 days), Y/M/D = 2010/06/15, records b/a:   1321/  1322 (days  165.0625/ 165.1875)
       it_offset is :            0
   fld_read: var sosudosw kt =        3 ( 165.1042 days), Y/M/D = 2010/06/15, record:   1321 (days  165.0000 <->  165.1250)
   fld_read: var sosudolw kt =        3 ( 165.1042 days), Y/M/D = 2010/06/15, record:   1321 (days  165.0000 <->  165.1250)
   fld_read: var sowaprec kt =        3 ( 165.1042 days), Y/M/D = 2010/06/15, record:   1321 (days  165.0000 <->  165.1250)
   fld_read: var sososnow kt =        3 ( 165.1042 days), Y/M/D = 2010/06/15, record:   1321 (days  165.0000 <->  165.1250)
   fld_read: var somslpre kt =        3 ( 165.1042 days), Y/M/D = 2010/06/15, records b/a:   1321/  1322 (days  165.0625/ 165.1875)
       it_offset is :            0
  New shortwave to sample for TOP at time kt =            3  time =    3.0000000000000000      hours 
           read sosudosw (rec:   1322) in ./forcing_C1D_PAPA.nc ok
           read sosudolw (rec:   1322) in ./forcing_C1D_PAPA.nc ok
           read sowaprec (rec:   1322) in ./forcing_C1D_PAPA.nc ok
           read sososnow (rec:   1322) in ./forcing_C1D_PAPA.nc ok
[...]
           read somslpre (rec:   1294) in ./forcing_C1D_PAPA.nc ok
           read sosudosw (rec:   1294) in ./forcing_C1D_PAPA.nc ok
           read sosudolw (rec:   1294) in ./forcing_C1D_PAPA.nc ok
           read sowaprec (rec:   1294) in ./forcing_C1D_PAPA.nc ok
           read sososnow (rec:   1294) in ./forcing_C1D_PAPA.nc ok
           read sowinu10 (rec:   1295) in ./forcing_C1D_PAPA.nc ok
           read sowinv10 (rec:   1295) in ./forcing_C1D_PAPA.nc ok
           read sotemair (rec:   1295) in ./forcing_C1D_PAPA.nc ok
           read sohumspe (rec:   1295) in ./forcing_C1D_PAPA.nc ok
           read somslpre (rec:   1295) in ./forcing_C1D_PAPA.nc ok
           read sosudosw (rec:   1295) in ./forcing_C1D_PAPA.nc ok
           read sosudolw (rec:   1295) in ./forcing_C1D_PAPA.nc ok
           read sowaprec (rec:   1295) in ./forcing_C1D_PAPA.nc ok
           read sososnow (rec:   1295) in ./forcing_C1D_PAPA.nc ok
           read sowinu10 (rec:   1296) in ./forcing_C1D_PAPA.nc ok
           read sowinv10 (rec:   1296) in ./forcing_C1D_PAPA.nc ok
           read sotemair (rec:   1296) in ./forcing_C1D_PAPA.nc ok
           read sohumspe (rec:   1296) in ./forcing_C1D_PAPA.nc ok
           read somslpre (rec:   1296) in ./forcing_C1D_PAPA.nc ok
           read sosudosw (rec:   1296) in ./forcing_C1D_PAPA.nc ok
           read sosudolw (rec:   1296) in ./forcing_C1D_PAPA.nc ok
           read sowaprec (rec:   1296) in ./forcing_C1D_PAPA.nc ok
           read sososnow (rec:   1296) in ./forcing_C1D_PAPA.nc ok
           read sowinu10 (rec:   1297) in ./forcing_C1D_PAPA.nc ok
           read sowinv10 (rec:   1297) in ./forcing_C1D_PAPA.nc ok
           read sotemair (rec:   1297) in ./forcing_C1D_PAPA.nc ok
           read sohumspe (rec:   1297) in ./forcing_C1D_PAPA.nc ok
           read somslpre (rec:   1297) in ./forcing_C1D_PAPA.nc ok
======>> time-step =   17449      New day, DATE Y/M/D = 2012/06/12      nday_year = 163
         nsec_year = 13998600   nsec_month =  952200   nsec_day =  1800
   nsec_week =    88200
           read sosudosw (rec:   1297) in ./forcing_C1D_PAPA.nc ok
           read sosudolw (rec:   1297) in ./forcing_C1D_PAPA.nc ok
           read sowaprec (rec:   1297) in ./forcing_C1D_PAPA.nc ok
           read sososnow (rec:   1297) in ./forcing_C1D_PAPA.nc ok
           read sowinu10 (rec:   1298) in ./forcing_C1D_PAPA.nc ok
           read sowinv10 (rec:   1298) in ./forcing_C1D_PAPA.nc ok
           read sotemair (rec:   1298) in ./forcing_C1D_PAPA.nc ok
           read sohumspe (rec:   1298) in ./forcing_C1D_PAPA.nc ok
           read somslpre (rec:   1298) in ./forcing_C1D_PAPA.nc ok
           read sosudosw (rec:   1298) in ./forcing_C1D_PAPA.nc ok
           read sosudolw (rec:   1298) in ./forcing_C1D_PAPA.nc ok
           read sowaprec (rec:   1298) in ./forcing_C1D_PAPA.nc ok
           read sososnow (rec:   1298) in ./forcing_C1D_PAPA.nc ok
           read sowinu10 (rec:   1299) in ./forcing_C1D_PAPA.nc ok
           read sowinv10 (rec:   1299) in ./forcing_C1D_PAPA.nc ok
           read sotemair (rec:   1299) in ./forcing_C1D_PAPA.nc ok
           read sohumspe (rec:   1299) in ./forcing_C1D_PAPA.nc ok
           read somslpre (rec:   1299) in ./forcing_C1D_PAPA.nc ok
           read sosudosw (rec:   1299) in ./forcing_C1D_PAPA.nc ok
           read sosudolw (rec:   1299) in ./forcing_C1D_PAPA.nc ok
           read sowaprec (rec:   1299) in ./forcing_C1D_PAPA.nc ok
           read sososnow (rec:   1299) in ./forcing_C1D_PAPA.nc ok
           read sowinu10 (rec:   1300) in ./forcing_C1D_PAPA.nc ok
           read sowinv10 (rec:   1300) in ./forcing_C1D_PAPA.nc ok
           read sotemair (rec:   1300) in ./forcing_C1D_PAPA.nc ok
           read sohumspe (rec:   1300) in ./forcing_C1D_PAPA.nc ok
           read somslpre (rec:   1300) in ./forcing_C1D_PAPA.nc ok
           read sosudosw (rec:   1300) in ./forcing_C1D_PAPA.nc ok
           read sosudolw (rec:   1300) in ./forcing_C1D_PAPA.nc ok
           read sowaprec (rec:   1300) in ./forcing_C1D_PAPA.nc ok
           read sososnow (rec:   1300) in ./forcing_C1D_PAPA.nc ok
           read sowinu10 (rec:   1301) in ./forcing_C1D_PAPA.nc ok
           read sowinv10 (rec:   1301) in ./forcing_C1D_PAPA.nc ok
           read sotemair (rec:   1301) in ./forcing_C1D_PAPA.nc ok
           read sohumspe (rec:   1301) in ./forcing_C1D_PAPA.nc ok
           read somslpre (rec:   1301) in ./forcing_C1D_PAPA.nc ok
           read sosudosw (rec:   1301) in ./forcing_C1D_PAPA.nc ok
           read sosudolw (rec:   1301) in ./forcing_C1D_PAPA.nc ok
           read sowaprec (rec:   1301) in ./forcing_C1D_PAPA.nc ok
           read sososnow (rec:   1301) in ./forcing_C1D_PAPA.nc ok
           read sowinu10 (rec:   1302) in ./forcing_C1D_PAPA.nc ok
           read sowinv10 (rec:   1302) in ./forcing_C1D_PAPA.nc ok
           read sotemair (rec:   1302) in ./forcing_C1D_PAPA.nc ok
           read sohumspe (rec:   1302) in ./forcing_C1D_PAPA.nc ok
           read somslpre (rec:   1302) in ./forcing_C1D_PAPA.nc ok
           read sosudosw (rec:   1302) in ./forcing_C1D_PAPA.nc ok
           read sosudolw (rec:   1302) in ./forcing_C1D_PAPA.nc ok
           read sowaprec (rec:   1302) in ./forcing_C1D_PAPA.nc ok
           read sososnow (rec:   1302) in ./forcing_C1D_PAPA.nc ok
           read sowinu10 (rec:   1303) in ./forcing_C1D_PAPA.nc ok
           read sowinv10 (rec:   1303) in ./forcing_C1D_PAPA.nc ok
           read sotemair (rec:   1303) in ./forcing_C1D_PAPA.nc ok
           read sohumspe (rec:   1303) in ./forcing_C1D_PAPA.nc ok
           read somslpre (rec:   1303) in ./forcing_C1D_PAPA.nc ok
           read sosudosw (rec:   1303) in ./forcing_C1D_PAPA.nc ok
           read sosudolw (rec:   1303) in ./forcing_C1D_PAPA.nc ok
           read sowaprec (rec:   1303) in ./forcing_C1D_PAPA.nc ok
           read sososnow (rec:   1303) in ./forcing_C1D_PAPA.nc ok
           read sowinu10 (rec:   1304) in ./forcing_C1D_PAPA.nc ok
           read sowinv10 (rec:   1304) in ./forcing_C1D_PAPA.nc ok
           read sotemair (rec:   1304) in ./forcing_C1D_PAPA.nc ok
           read sohumspe (rec:   1304) in ./forcing_C1D_PAPA.nc ok
           read somslpre (rec:   1304) in ./forcing_C1D_PAPA.nc ok
           read sosudosw (rec:   1304) in ./forcing_C1D_PAPA.nc ok
           read sosudolw (rec:   1304) in ./forcing_C1D_PAPA.nc ok
           read sowaprec (rec:   1304) in ./forcing_C1D_PAPA.nc ok
           read sososnow (rec:   1304) in ./forcing_C1D_PAPA.nc ok
           read sowinu10 (rec:   1305) in ./forcing_C1D_PAPA.nc ok
           read sowinv10 (rec:   1305) in ./forcing_C1D_PAPA.nc ok
           read sotemair (rec:   1305) in ./forcing_C1D_PAPA.nc ok
           read sohumspe (rec:   1305) in ./forcing_C1D_PAPA.nc ok
           read somslpre (rec:   1305) in ./forcing_C1D_PAPA.nc ok
======>> time-step =   17473      New day, DATE Y/M/D = 2012/06/13      nday_year = 164
         nsec_year = 14085000   nsec_month = 1038600   nsec_day =  1800
   nsec_week =   174600
           read sosudosw (rec:   1305) in ./forcing_C1D_PAPA.nc ok
           read sosudolw (rec:   1305) in ./forcing_C1D_PAPA.nc ok
           read sowaprec (rec:   1305) in ./forcing_C1D_PAPA.nc ok
           read sososnow (rec:   1305) in ./forcing_C1D_PAPA.nc ok
           read sowinu10 (rec:   1306) in ./forcing_C1D_PAPA.nc ok
           read sowinv10 (rec:   1306) in ./forcing_C1D_PAPA.nc ok
           read sotemair (rec:   1306) in ./forcing_C1D_PAPA.nc ok
           read sohumspe (rec:   1306) in ./forcing_C1D_PAPA.nc ok
           read somslpre (rec:   1306) in ./forcing_C1D_PAPA.nc ok
           read sosudosw (rec:   1306) in ./forcing_C1D_PAPA.nc ok
           read sosudolw (rec:   1306) in ./forcing_C1D_PAPA.nc ok
           read sowaprec (rec:   1306) in ./forcing_C1D_PAPA.nc ok
           read sososnow (rec:   1306) in ./forcing_C1D_PAPA.nc ok
           read sowinu10 (rec:   1307) in ./forcing_C1D_PAPA.nc ok
           read sowinv10 (rec:   1307) in ./forcing_C1D_PAPA.nc ok
           read sotemair (rec:   1307) in ./forcing_C1D_PAPA.nc ok
           read sohumspe (rec:   1307) in ./forcing_C1D_PAPA.nc ok
           read somslpre (rec:   1307) in ./forcing_C1D_PAPA.nc ok
           read sosudosw (rec:   1307) in ./forcing_C1D_PAPA.nc ok
           read sosudolw (rec:   1307) in ./forcing_C1D_PAPA.nc ok
           read sowaprec (rec:   1307) in ./forcing_C1D_PAPA.nc ok
           read sososnow (rec:   1307) in ./forcing_C1D_PAPA.nc ok
           read sowinu10 (rec:   1308) in ./forcing_C1D_PAPA.nc ok
           read sowinv10 (rec:   1308) in ./forcing_C1D_PAPA.nc ok
           read sotemair (rec:   1308) in ./forcing_C1D_PAPA.nc ok
           read sohumspe (rec:   1308) in ./forcing_C1D_PAPA.nc ok
           read somslpre (rec:   1308) in ./forcing_C1D_PAPA.nc ok
           read sosudosw (rec:   1308) in ./forcing_C1D_PAPA.nc ok
           read sosudolw (rec:   1308) in ./forcing_C1D_PAPA.nc ok
           read sowaprec (rec:   1308) in ./forcing_C1D_PAPA.nc ok
           read sososnow (rec:   1308) in ./forcing_C1D_PAPA.nc ok
           read sowinu10 (rec:   1309) in ./forcing_C1D_PAPA.nc ok
           read sowinv10 (rec:   1309) in ./forcing_C1D_PAPA.nc ok
           read sotemair (rec:   1309) in ./forcing_C1D_PAPA.nc ok
           read sohumspe (rec:   1309) in ./forcing_C1D_PAPA.nc ok
           read somslpre (rec:   1309) in ./forcing_C1D_PAPA.nc ok
           read sosudosw (rec:   1309) in ./forcing_C1D_PAPA.nc ok
           read sosudolw (rec:   1309) in ./forcing_C1D_PAPA.nc ok
           read sowaprec (rec:   1309) in ./forcing_C1D_PAPA.nc ok
           read sososnow (rec:   1309) in ./forcing_C1D_PAPA.nc ok
           read sowinu10 (rec:   1310) in ./forcing_C1D_PAPA.nc ok
           read sowinv10 (rec:   1310) in ./forcing_C1D_PAPA.nc ok
           read sotemair (rec:   1310) in ./forcing_C1D_PAPA.nc ok
           read sohumspe (rec:   1310) in ./forcing_C1D_PAPA.nc ok
           read somslpre (rec:   1310) in ./forcing_C1D_PAPA.nc ok
           read sosudosw (rec:   1310) in ./forcing_C1D_PAPA.nc ok
           read sosudolw (rec:   1310) in ./forcing_C1D_PAPA.nc ok
           read sowaprec (rec:   1310) in ./forcing_C1D_PAPA.nc ok
           read sososnow (rec:   1310) in ./forcing_C1D_PAPA.nc ok
           read sowinu10 (rec:   1311) in ./forcing_C1D_PAPA.nc ok
           read sowinv10 (rec:   1311) in ./forcing_C1D_PAPA.nc ok
           read sotemair (rec:   1311) in ./forcing_C1D_PAPA.nc ok
           read sohumspe (rec:   1311) in ./forcing_C1D_PAPA.nc ok
           read somslpre (rec:   1311) in ./forcing_C1D_PAPA.nc ok
           read sosudosw (rec:   1311) in ./forcing_C1D_PAPA.nc ok
           read sosudolw (rec:   1311) in ./forcing_C1D_PAPA.nc ok
           read sowaprec (rec:   1311) in ./forcing_C1D_PAPA.nc ok
           read sososnow (rec:   1311) in ./forcing_C1D_PAPA.nc ok
           read sowinu10 (rec:   1312) in ./forcing_C1D_PAPA.nc ok
           read sowinv10 (rec:   1312) in ./forcing_C1D_PAPA.nc ok
           read sotemair (rec:   1312) in ./forcing_C1D_PAPA.nc ok
           read sohumspe (rec:   1312) in ./forcing_C1D_PAPA.nc ok
           read somslpre (rec:   1312) in ./forcing_C1D_PAPA.nc ok
           read sosudosw (rec:   1312) in ./forcing_C1D_PAPA.nc ok
           read sosudolw (rec:   1312) in ./forcing_C1D_PAPA.nc ok
           read sowaprec (rec:   1312) in ./forcing_C1D_PAPA.nc ok
           read sososnow (rec:   1312) in ./forcing_C1D_PAPA.nc ok
           read sowinu10 (rec:   1313) in ./forcing_C1D_PAPA.nc ok
           read sowinv10 (rec:   1313) in ./forcing_C1D_PAPA.nc ok
           read sotemair (rec:   1313) in ./forcing_C1D_PAPA.nc ok
           read sohumspe (rec:   1313) in ./forcing_C1D_PAPA.nc ok
           read somslpre (rec:   1313) in ./forcing_C1D_PAPA.nc ok
======>> time-step =   17497      New day, DATE Y/M/D = 2012/06/14      nday_year = 165
         nsec_year = 14171400   nsec_month = 1125000   nsec_day =  1800
   nsec_week =   261000
           read sosudosw (rec:   1313) in ./forcing_C1D_PAPA.nc ok
           read sosudolw (rec:   1313) in ./forcing_C1D_PAPA.nc ok
           read sowaprec (rec:   1313) in ./forcing_C1D_PAPA.nc ok
           read sososnow (rec:   1313) in ./forcing_C1D_PAPA.nc ok
           read sowinu10 (rec:   1314) in ./forcing_C1D_PAPA.nc ok
           read sowinv10 (rec:   1314) in ./forcing_C1D_PAPA.nc ok
           read sotemair (rec:   1314) in ./forcing_C1D_PAPA.nc ok
           read sohumspe (rec:   1314) in ./forcing_C1D_PAPA.nc ok
           read somslpre (rec:   1314) in ./forcing_C1D_PAPA.nc ok
           read sosudosw (rec:   1314) in ./forcing_C1D_PAPA.nc ok
           read sosudolw (rec:   1314) in ./forcing_C1D_PAPA.nc ok
           read sowaprec (rec:   1314) in ./forcing_C1D_PAPA.nc ok
           read sososnow (rec:   1314) in ./forcing_C1D_PAPA.nc ok
           read sowinu10 (rec:   1315) in ./forcing_C1D_PAPA.nc ok
           read sowinv10 (rec:   1315) in ./forcing_C1D_PAPA.nc ok
           read sotemair (rec:   1315) in ./forcing_C1D_PAPA.nc ok
           read sohumspe (rec:   1315) in ./forcing_C1D_PAPA.nc ok
           read somslpre (rec:   1315) in ./forcing_C1D_PAPA.nc ok
           read sosudosw (rec:   1315) in ./forcing_C1D_PAPA.nc ok
           read sosudolw (rec:   1315) in ./forcing_C1D_PAPA.nc ok
           read sowaprec (rec:   1315) in ./forcing_C1D_PAPA.nc ok
           read sososnow (rec:   1315) in ./forcing_C1D_PAPA.nc ok
           read sowinu10 (rec:   1316) in ./forcing_C1D_PAPA.nc ok
           read sowinv10 (rec:   1316) in ./forcing_C1D_PAPA.nc ok
           read sotemair (rec:   1316) in ./forcing_C1D_PAPA.nc ok
           read sohumspe (rec:   1316) in ./forcing_C1D_PAPA.nc ok
           read somslpre (rec:   1316) in ./forcing_C1D_PAPA.nc ok
           read sosudosw (rec:   1316) in ./forcing_C1D_PAPA.nc ok
           read sosudolw (rec:   1316) in ./forcing_C1D_PAPA.nc ok
           read sowaprec (rec:   1316) in ./forcing_C1D_PAPA.nc ok
           read sososnow (rec:   1316) in ./forcing_C1D_PAPA.nc ok
           read sowinu10 (rec:   1317) in ./forcing_C1D_PAPA.nc ok
           read sowinv10 (rec:   1317) in ./forcing_C1D_PAPA.nc ok
           read sotemair (rec:   1317) in ./forcing_C1D_PAPA.nc ok
           read sohumspe (rec:   1317) in ./forcing_C1D_PAPA.nc ok
           read somslpre (rec:   1317) in ./forcing_C1D_PAPA.nc ok
           read sosudosw (rec:   1317) in ./forcing_C1D_PAPA.nc ok
           read sosudolw (rec:   1317) in ./forcing_C1D_PAPA.nc ok
           read sowaprec (rec:   1317) in ./forcing_C1D_PAPA.nc ok
           read sososnow (rec:   1317) in ./forcing_C1D_PAPA.nc ok
           read sowinu10 (rec:   1318) in ./forcing_C1D_PAPA.nc ok
           read sowinv10 (rec:   1318) in ./forcing_C1D_PAPA.nc ok
           read sotemair (rec:   1318) in ./forcing_C1D_PAPA.nc ok
           read sohumspe (rec:   1318) in ./forcing_C1D_PAPA.nc ok
           read somslpre (rec:   1318) in ./forcing_C1D_PAPA.nc ok
           read sosudosw (rec:   1318) in ./forcing_C1D_PAPA.nc ok
           read sosudolw (rec:   1318) in ./forcing_C1D_PAPA.nc ok
           read sowaprec (rec:   1318) in ./forcing_C1D_PAPA.nc ok
           read sososnow (rec:   1318) in ./forcing_C1D_PAPA.nc ok
           read sowinu10 (rec:   1319) in ./forcing_C1D_PAPA.nc ok
           read sowinv10 (rec:   1319) in ./forcing_C1D_PAPA.nc ok
           read sotemair (rec:   1319) in ./forcing_C1D_PAPA.nc ok
           read sohumspe (rec:   1319) in ./forcing_C1D_PAPA.nc ok
           read somslpre (rec:   1319) in ./forcing_C1D_PAPA.nc ok
           read sosudosw (rec:   1319) in ./forcing_C1D_PAPA.nc ok
           read sosudolw (rec:   1319) in ./forcing_C1D_PAPA.nc ok
           read sowaprec (rec:   1319) in ./forcing_C1D_PAPA.nc ok
           read sososnow (rec:   1319) in ./forcing_C1D_PAPA.nc ok
           read sowinu10 (rec:   1320) in ./forcing_C1D_PAPA.nc ok
           read sowinv10 (rec:   1320) in ./forcing_C1D_PAPA.nc ok
           read sotemair (rec:   1320) in ./forcing_C1D_PAPA.nc ok
           read sohumspe (rec:   1320) in ./forcing_C1D_PAPA.nc ok
           read somslpre (rec:   1320) in ./forcing_C1D_PAPA.nc ok
           read sosudosw (rec:   1320) in ./forcing_C1D_PAPA.nc ok
           read sosudolw (rec:   1320) in ./forcing_C1D_PAPA.nc ok
           read sowaprec (rec:   1320) in ./forcing_C1D_PAPA.nc ok
           read sososnow (rec:   1320) in ./forcing_C1D_PAPA.nc ok

              open trc restart.output NetCDF file: .//media/belharet/DD_BELHARET/NECCTON/comparison/C1D
                     iom_nf90_open ~~~ create new file: .//media/belharet/DD_BELHARET/NECCTON/comparison/C1D.nc in WRITE mode

  ===>>> : E R R O R

          ===========

 iom_nf90_check : No such file or directory
                     iom_nf90_open ~~~


  ===>>> : E R R O R

          ===========

 iom_nf90_check : NetCDF: Not a valid ID
                     iom_nf90_open ~~~


  ===>>> : E R R O R

          ===========

 iom_nf90_check : NetCDF: Not a valid ID
                     iom_nf90_open ~~~


  ===>>> : E R R O R

          ===========

 iom_nf90_check : NetCDF: Not a valid ID
                     iom_nf90_open ~~~


  ===>>> : E R R O R

          ===========

 iom_nf90_check : NetCDF: Not a valid ID
                     iom_nf90_open ~~~


  ===>>> : E R R O R

          ===========

 iom_nf90_check : NetCDF: Not a valid ID
                     iom_nf90_open ~~~


  ===>>> : E R R O R

          ===========

 iom_nf90_check : NetCDF: Not a valid ID
                     iom_nf90_open ~~~


  ===>>> : E R R O R

          ===========

 iom_nf90_check : NetCDF: Not a valid ID
                     iom_nf90_open ~~~


  ===>>> : E R R O R

          ===========

 iom_nf90_check : NetCDF: Not a valid ID
                     iom_nf90_open ~~~


  ===>>> : E R R O R

          ===========

 iom_nf90_check : NetCDF: Not a valid ID
                     iom_nf90_open ~~~


  ===>>> : E R R O R

          ===========

 iom_nf90_check : NetCDF: Not a valid ID
                     iom_nf90_open ~~~


  ===>>> : E R R O R

          ===========

 iom_nf90_check : NetCDF: Not a valid ID
                     iom_nf90_open ~~~


  ===>>> : E R R O R

          ===========

 iom_nf90_check : NetCDF: Not a valid ID
                     iom_nf90_open ~~~


  ===>>> : E R R O R

          ===========

 iom_nf90_check : NetCDF: Not a valid ID
                     iom_nf90_open ~~~


  ===>>> : E R R O R

          ===========

 iom_nf90_check : NetCDF: Not a valid ID
                     iom_nf90_open ~~~


  ===>>> : E R R O R

          ===========

 iom_nf90_check : NetCDF: Not a valid ID
                     iom_nf90_open ~~~


 sbc : ocean surface tracer content forcing fields written in tracer restart file at it=        17518  date=     20120614
 ~~~~

AAAAAAAA


  ===>>> : E R R O R

          ===========

 
     ==>>>   nemo_gcm: a total of           16  errors have been found
 
             Look for "E R R O R" messages in all existing ocean_output* files

                     iom_close ~~~ close file: ./init_PAPASTATION_m06d15.nc ok
                     iom_close ~~~ close file: ./init_PAPASTATION_m06d15.nc ok
                     iom_close ~~~ close file: ./forcing_C1D_PAPA.nc ok
                     iom_close ~~~ close file: ./forcing_C1D_PAPA.nc ok
                     iom_close ~~~ close file: ./forcing_C1D_PAPA.nc ok
                     iom_close ~~~ close file: ./forcing_C1D_PAPA.nc ok
                     iom_close ~~~ close file: ./forcing_C1D_PAPA.nc ok
                     iom_close ~~~ close file: ./forcing_C1D_PAPA.nc ok
                     iom_close ~~~ close file: ./forcing_C1D_PAPA.nc ok
                     iom_close ~~~ close file: ./forcing_C1D_PAPA.nc ok
                     iom_close ~~~ close file: ./forcing_C1D_PAPA.nc ok
